version 3
run General-0-20240428-10:47:56-26856
attr configname General
attr datetime 20240428-10:47:56
attr datetimef 20240428-104756
attr experiment General
attr inifile omnetpp.ini
attr iterationvars ""
attr iterationvarsd ""
attr iterationvarsf ""
attr measurement ""
attr network NetworkSimulation2
attr processid 26856
attr repetition 0
attr replication #0
attr resultdir results
attr runnumber 0
attr seedset 0
config image-path ../../inet4.5/images
config network NetworkSimulation2
config **.ospf.ospfConfig "xmldoc(\"config.xml\")"
config sim-time-limit 3600s
config **.host*.app[*].typename UdpBasicBurst
config **.host*.app[*].chooseDestAddrMode "\"once\""
config **.fifo[*].queueLength.result-recording-modes +vector
config **.router*.ppp[*].queue.typename inet.examples.inet.netperfmeter.REDQueue
config **.queue.numQueues 2
config **.router*.ppp[*].queue.packetCapacity 10
config **.router*.ppp[*].PacketBuffer 16000
config **.host*.app[0].destPort 1000
config **.host*.app[1].destPort 1001
config **.host*.app[2].destPort 1002
config **.host*.app[3].destPort 1003
config **.host*.app[4].destPort 1004
config **.host*.app[5].destPort 1005
config **.host*.app[6].destPort 1006
config **.host*.app[0].localPort 1000
config **.host*.app[1].localPort 1001
config **.host*.app[2].localPort 1002
config **.host*.app[3].localPort 1003
config **.host*.app[4].localPort 1004
config **.host*.app[5].localPort 1005
config **.host*.app[6].localPort 1006
config *.host4.numApps 7
config *.host4.app[0].typename UdpBasicBurst
config *.host4.app[0].destAddresses "\"host2\""
config *.host4.app[0].datarate 10210
config *.host4.app[0].messageLength 1000Byte
config *.host4.app[0].tos 0
config *.host4.app[0].sendInterval 1s
config *.host4.app[0].sleepDuration 0s
config *.host4.app[0].burstDuration 0s
config *.host4.app[1].typename UdpBasicBurst
config *.host4.app[1].destAddresses "\"host3\""
config *.host4.app[1].datarate 19687
config *.host4.app[1].messageLength 300Byte
config *.host4.app[1].tos 0
config *.host4.app[1].sendInterval 1s
config *.host4.app[1].sleepDuration 0s
config *.host4.app[1].burstDuration 0s
config *.host4.app[2].typename UdpBasicBurst
config *.host4.app[2].destAddresses "\"host1\""
config *.host4.app[2].datarate 6251
config *.host4.app[2].messageLength 200Byte
config *.host4.app[2].tos 1
config *.host4.app[2].sendInterval 1s
config *.host4.app[2].sleepDuration 0s
config *.host4.app[2].burstDuration 0s
config *.host4.app[3].typename UdpBasicBurst
config *.host4.app[3].destAddresses "\"host7\""
config *.host4.app[3].datarate 10304
config *.host4.app[3].messageLength 500Byte
config *.host4.app[3].tos 1
config *.host4.app[3].sendInterval 1s
config *.host4.app[3].sleepDuration 0s
config *.host4.app[3].burstDuration 0s
config *.host4.app[4].typename UdpBasicBurst
config *.host4.app[4].destAddresses "\"host6\""
config *.host4.app[4].datarate 11462
config *.host4.app[4].messageLength 1000Byte
config *.host4.app[4].tos 0
config *.host4.app[4].sendInterval 1s
config *.host4.app[4].sleepDuration 0s
config *.host4.app[4].burstDuration 0s
config *.host4.app[5].typename UdpBasicBurst
config *.host4.app[5].destAddresses "\"host5\""
config *.host4.app[5].datarate 8856
config *.host4.app[5].messageLength 300Byte
config *.host4.app[5].tos 2
config *.host4.app[5].sendInterval 1s
config *.host4.app[5].sleepDuration 0s
config *.host4.app[5].burstDuration 0s
config *.host4.app[6].typename UdpBasicBurst
config *.host4.app[6].destAddresses "\"host4\""
config *.host4.app[6].datarate 10662
config *.host4.app[6].messageLength 500Byte
config *.host4.app[6].tos 0
config *.host4.app[6].sendInterval 1s
config *.host4.app[6].sleepDuration 0s
config *.host4.app[6].burstDuration 0s
config *.host1.numApps 7
config *.host1.app[0].typename UdpBasicBurst
config *.host1.app[0].destAddresses "\"host1\""
config *.host1.app[0].datarate 19529
config *.host1.app[0].messageLength 500Byte
config *.host1.app[0].tos 0
config *.host1.app[0].sendInterval 1s
config *.host1.app[0].sleepDuration 0s
config *.host1.app[0].burstDuration 0s
config *.host1.app[1].typename UdpBasicBurst
config *.host1.app[1].destAddresses "\"host2\""
config *.host1.app[1].datarate 8940
config *.host1.app[1].messageLength 300Byte
config *.host1.app[1].tos 1
config *.host1.app[1].sendInterval 1s
config *.host1.app[1].sleepDuration 0s
config *.host1.app[1].burstDuration 0s
config *.host1.app[2].typename UdpBasicBurst
config *.host1.app[2].destAddresses "\"host3\""
config *.host1.app[2].datarate 19367
config *.host1.app[2].messageLength 200Byte
config *.host1.app[2].tos 0
config *.host1.app[2].sendInterval 1s
config *.host1.app[2].sleepDuration 0s
config *.host1.app[2].burstDuration 0s
config *.host1.app[3].typename UdpBasicBurst
config *.host1.app[3].destAddresses "\"host4\""
config *.host1.app[3].datarate 14450
config *.host1.app[3].messageLength 300Byte
config *.host1.app[3].tos 0
config *.host1.app[3].sendInterval 1s
config *.host1.app[3].sleepDuration 0s
config *.host1.app[3].burstDuration 0s
config *.host1.app[4].typename UdpBasicBurst
config *.host1.app[4].destAddresses "\"host5\""
config *.host1.app[4].datarate 17750
config *.host1.app[4].messageLength 500Byte
config *.host1.app[4].tos 0
config *.host1.app[4].sendInterval 1s
config *.host1.app[4].sleepDuration 0s
config *.host1.app[4].burstDuration 0s
config *.host1.app[5].typename UdpBasicBurst
config *.host1.app[5].destAddresses "\"host6\""
config *.host1.app[5].datarate 14750
config *.host1.app[5].messageLength 1000Byte
config *.host1.app[5].tos 1
config *.host1.app[5].sendInterval 1s
config *.host1.app[5].sleepDuration 0s
config *.host1.app[5].burstDuration 0s
config *.host1.app[6].typename UdpBasicBurst
config *.host1.app[6].destAddresses "\"host7\""
config *.host1.app[6].datarate 11650
config *.host1.app[6].messageLength 200Byte
config *.host1.app[6].tos 2
config *.host1.app[6].sendInterval 1s
config *.host1.app[6].sleepDuration 0s
config *.host1.app[6].burstDuration 0s
config *.host2.numApps 7
config *.host2.app[0].typename UdpBasicBurst
config *.host2.app[0].destAddresses "\"host1\""
config *.host2.app[0].datarate 12876
config *.host2.app[0].messageLength 300Byte
config *.host2.app[0].tos 0
config *.host2.app[0].sendInterval 1s
config *.host2.app[0].sleepDuration 0s
config *.host2.app[0].burstDuration 0s
config *.host2.app[1].typename UdpBasicBurst
config *.host2.app[1].destAddresses "\"host2\""
config *.host2.app[1].datarate 12786
config *.host2.app[1].messageLength 500Byte
config *.host2.app[1].tos 0
config *.host2.app[1].sendInterval 1s
config *.host2.app[1].sleepDuration 0s
config *.host2.app[1].burstDuration 0s
config *.host2.app[2].typename UdpBasicBurst
config *.host2.app[2].destAddresses "\"host3\""
config *.host2.app[2].datarate 5674
config *.host2.app[2].messageLength 100Byte
config *.host2.app[2].tos 0
config *.host2.app[2].sendInterval 1s
config *.host2.app[2].sleepDuration 0s
config *.host2.app[2].burstDuration 0s
config *.host2.app[3].typename UdpBasicBurst
config *.host2.app[3].destAddresses "\"host4\""
config *.host2.app[3].datarate 6785
config *.host2.app[3].messageLength 300Byte
config *.host2.app[3].tos 0
config *.host2.app[3].sendInterval 1s
config *.host2.app[3].sleepDuration 0s
config *.host2.app[3].burstDuration 0s
config *.host2.app[4].typename UdpBasicBurst
config *.host2.app[4].destAddresses "\"host5\""
config *.host2.app[4].datarate 34565
config *.host2.app[4].messageLength 500Byte
config *.host2.app[4].tos 0
config *.host2.app[4].sendInterval 1s
config *.host2.app[4].sleepDuration 0s
config *.host2.app[4].burstDuration 0s
config *.host2.app[5].typename UdpBasicBurst
config *.host2.app[5].destAddresses "\"host6\""
config *.host2.app[5].datarate 16543
config *.host2.app[5].messageLength 500Byte
config *.host2.app[5].tos 0
config *.host2.app[5].sendInterval 1s
config *.host2.app[5].sleepDuration 0s
config *.host2.app[5].burstDuration 0s
config *.host2.app[6].typename UdpBasicBurst
config *.host2.app[6].destAddresses "\"host7\""
config *.host2.app[6].datarate 23511
config *.host2.app[6].messageLength 300Byte
config *.host2.app[6].tos 1
config *.host2.app[6].sendInterval 1s
config *.host2.app[6].sleepDuration 0s
config *.host2.app[6].burstDuration 0s
config *.host3.numApps 7
config *.host3.app[0].typename UdpBasicBurst
config *.host3.app[0].destAddresses "\"host1\""
config *.host3.app[0].datarate 27654
config *.host3.app[0].messageLength 400Byte
config *.host3.app[0].tos 2
config *.host3.app[0].sendInterval 1s
config *.host3.app[0].sleepDuration 0s
config *.host3.app[0].burstDuration 0s
config *.host3.app[1].typename UdpBasicBurst
config *.host3.app[1].destAddresses "\"host2\""
config *.host3.app[1].datarate 16542
config *.host3.app[1].messageLength 500Byte
config *.host3.app[1].tos 0
config *.host3.app[1].sendInterval 1s
config *.host3.app[1].sleepDuration 0s
config *.host3.app[1].burstDuration 0s
config *.host3.app[2].typename UdpBasicBurst
config *.host3.app[2].destAddresses "\"host3\""
config *.host3.app[2].datarate 11987
config *.host3.app[2].messageLength 300Byte
config *.host3.app[2].tos 0
config *.host3.app[2].sendInterval 1s
config *.host3.app[2].sleepDuration 0s
config *.host3.app[2].burstDuration 0s
config *.host3.app[3].typename UdpBasicBurst
config *.host3.app[3].destAddresses "\"host4\""
config *.host3.app[3].datarate 32165
config *.host3.app[3].messageLength 500Byte
config *.host3.app[3].tos 1
config *.host3.app[3].sendInterval 1s
config *.host3.app[3].sleepDuration 0s
config *.host3.app[3].burstDuration 0s
config *.host3.app[4].typename UdpBasicBurst
config *.host3.app[4].destAddresses "\"host5\""
config *.host3.app[4].datarate 127654
config *.host3.app[4].messageLength 500Byte
config *.host3.app[4].tos 2
config *.host3.app[4].sendInterval 1s
config *.host3.app[4].sleepDuration 0s
config *.host3.app[4].burstDuration 0s
config *.host3.app[5].typename UdpBasicBurst
config *.host3.app[5].destAddresses "\"host6\""
config *.host3.app[5].datarate 98765
config *.host3.app[5].messageLength 300Byte
config *.host3.app[5].tos 0
config *.host3.app[5].sendInterval 1s
config *.host3.app[5].sleepDuration 0s
config *.host3.app[5].burstDuration 0s
config *.host3.app[6].typename UdpBasicBurst
config *.host3.app[6].destAddresses "\"host7\""
config *.host3.app[6].datarate 27654
config *.host3.app[6].messageLength 200Byte
config *.host3.app[6].tos 0
config *.host3.app[6].sendInterval 1s
config *.host3.app[6].sleepDuration 0s
config *.host3.app[6].burstDuration 0s
config *.host5.numApps 7
config *.host5.app[0].typename UdpBasicBurst
config *.host5.app[0].destAddresses "\"host1\""
config *.host5.app[0].datarate 29876
config *.host5.app[0].messageLength 300Byte
config *.host5.app[0].tos 0
config *.host5.app[0].sendInterval 1s
config *.host5.app[0].sleepDuration 0s
config *.host5.app[0].burstDuration 0s
config *.host5.app[1].typename UdpBasicBurst
config *.host5.app[1].destAddresses "\"host2\""
config *.host5.app[1].datarate 37635
config *.host5.app[1].messageLength 500Byte
config *.host5.app[1].tos 0
config *.host5.app[1].sendInterval 1s
config *.host5.app[1].sleepDuration 0s
config *.host5.app[1].burstDuration 0s
config *.host5.app[2].typename UdpBasicBurst
config *.host5.app[2].destAddresses "\"host3\""
config *.host5.app[2].datarate 29876
config *.host5.app[2].messageLength 500Byte
config *.host5.app[2].tos 0
config *.host5.app[2].sendInterval 1s
config *.host5.app[2].sleepDuration 0s
config *.host5.app[2].burstDuration 0s
config *.host5.app[3].typename UdpBasicBurst
config *.host5.app[3].destAddresses "\"host4\""
config *.host5.app[3].datarate 47634
config *.host5.app[3].messageLength 200Byte
config *.host5.app[3].tos 0
config *.host5.app[3].sendInterval 1s
config *.host5.app[3].sleepDuration 0s
config *.host5.app[3].burstDuration 0s
config *.host5.app[4].typename UdpBasicBurst
config *.host5.app[4].destAddresses "\"host5\""
config *.host5.app[4].datarate 56874
config *.host5.app[4].messageLength 300Byte
config *.host5.app[4].tos 1
config *.host5.app[4].sendInterval 1s
config *.host5.app[4].sleepDuration 0s
config *.host5.app[4].burstDuration 0s
config *.host5.app[5].typename UdpBasicBurst
config *.host5.app[5].destAddresses "\"host6\""
config *.host5.app[5].datarate 38765
config *.host5.app[5].messageLength 400Byte
config *.host5.app[5].tos 0
config *.host5.app[5].sendInterval 1s
config *.host5.app[5].sleepDuration 0s
config *.host5.app[5].burstDuration 0s
config *.host5.app[6].typename UdpBasicBurst
config *.host5.app[6].destAddresses "\"host7\""
config *.host5.app[6].datarate 37654
config *.host5.app[6].messageLength 200Byte
config *.host5.app[6].tos 0
config *.host5.app[6].sendInterval 1s
config *.host5.app[6].sleepDuration 0s
config *.host5.app[6].burstDuration 0s
config *.host6.numApps 6
config *.host6.app[0].typename UdpBasicBurst
config *.host6.app[0].destAddresses "\"host1\""
config *.host6.app[0].datarate 29873
config *.host6.app[0].messageLength 400Byte
config *.host6.app[0].tos 0
config *.host6.app[0].sendInterval 1s
config *.host6.app[0].sleepDuration 0s
config *.host6.app[0].burstDuration 0s
config *.host6.app[1].typename UdpBasicBurst
config *.host6.app[1].destAddresses "\"host2\""
config *.host6.app[1].datarate 68546
config *.host6.app[1].messageLength 500Byte
config *.host6.app[1].tos 0
config *.host6.app[1].sendInterval 1s
config *.host6.app[1].sleepDuration 0s
config *.host6.app[1].burstDuration 0s
config *.host6.app[2].typename UdpBasicBurst
config *.host6.app[2].destAddresses "\"host3\""
config *.host6.app[2].datarate 38765
config *.host6.app[2].messageLength 600Byte
config *.host6.app[2].tos 1
config *.host6.app[2].sendInterval 1s
config *.host6.app[2].sleepDuration 0s
config *.host6.app[2].burstDuration 0s
config *.host6.app[3].typename UdpBasicBurst
config *.host6.app[3].destAddresses "\"host4\""
config *.host6.app[3].datarate 8546
config *.host6.app[3].messageLength 500Byte
config *.host6.app[3].tos 1
config *.host6.app[3].sendInterval 1s
config *.host6.app[3].sleepDuration 0s
config *.host6.app[3].burstDuration 0s
config *.host6.app[4].typename UdpBasicBurst
config *.host6.app[4].destAddresses "\"host5\""
config *.host6.app[4].datarate 29875
config *.host6.app[4].messageLength 400Byte
config *.host6.app[4].tos 2
config *.host6.app[4].sendInterval 1s
config *.host6.app[4].sleepDuration 0s
config *.host6.app[4].burstDuration 0s
config *.host6.app[5].typename UdpBasicBurst
config *.host6.app[5].destAddresses "\"host7\""
config *.host6.app[5].datarate 29856
config *.host6.app[5].messageLength 300Byte
config *.host6.app[5].tos 0
config *.host6.app[5].sendInterval 1s
config *.host6.app[5].sleepDuration 0s
config *.host6.app[5].burstDuration 0s
config *.host7.numApps 1
config *.host7.app[0].typename UdpBasicBurst
config *.host7.app[0].destAddresses "\"host1\""
config *.host7.app[0].datarate 109856
config *.host7.app[0].messageLength 500Byte
config *.host7.app[0].tos 0
config *.host7.app[0].sendInterval 1s
config *.host7.app[0].sleepDuration 0s
config *.host7.app[0].burstDuration 0s

par NetworkSimulation2.router2.pppg$o[0].channel typename "\"networksimulation2.simulations.NetworkSimulation2.C\""
par NetworkSimulation2.router2.pppg$o[0].channel disabled false
attr mutable ""
par NetworkSimulation2.router2.pppg$o[0].channel delay 0s
attr mutable ""
attr unit s
par NetworkSimulation2.router2.pppg$o[0].channel datarate 2e+08bps
attr mutable ""
attr unit bps
par NetworkSimulation2.router2.pppg$o[0].channel ber 0
attr mutable ""
par NetworkSimulation2.router2.pppg$o[0].channel per 0
attr mutable ""
par NetworkSimulation2.router2.pppg$o[0].channel displayAsTooltip false
par NetworkSimulation2.router2.pppg$o[0].channel thruputDisplayFormat "\"\""
par NetworkSimulation2.router3.pppg$o[0].channel typename "\"networksimulation2.simulations.NetworkSimulation2.C\""
par NetworkSimulation2.router3.pppg$o[0].channel disabled false
attr mutable ""
par NetworkSimulation2.router3.pppg$o[0].channel delay 0s
attr mutable ""
attr unit s
par NetworkSimulation2.router3.pppg$o[0].channel datarate 2e+08bps
attr mutable ""
attr unit bps
par NetworkSimulation2.router3.pppg$o[0].channel ber 0
attr mutable ""
par NetworkSimulation2.router3.pppg$o[0].channel per 0
attr mutable ""
par NetworkSimulation2.router3.pppg$o[0].channel displayAsTooltip false
par NetworkSimulation2.router3.pppg$o[0].channel thruputDisplayFormat "\"\""
par NetworkSimulation2.router2.pppg$o[1].channel typename "\"networksimulation2.simulations.NetworkSimulation2.C\""
par NetworkSimulation2.router2.pppg$o[1].channel disabled false
attr mutable ""
par NetworkSimulation2.router2.pppg$o[1].channel delay 0s
attr mutable ""
attr unit s
par NetworkSimulation2.router2.pppg$o[1].channel datarate 2e+08bps
attr mutable ""
attr unit bps
par NetworkSimulation2.router2.pppg$o[1].channel ber 0
attr mutable ""
par NetworkSimulation2.router2.pppg$o[1].channel per 0
attr mutable ""
par NetworkSimulation2.router2.pppg$o[1].channel displayAsTooltip false
par NetworkSimulation2.router2.pppg$o[1].channel thruputDisplayFormat "\"\""
par NetworkSimulation2.router4.pppg$o[1].channel typename "\"networksimulation2.simulations.NetworkSimulation2.C\""
par NetworkSimulation2.router4.pppg$o[1].channel disabled false
attr mutable ""
par NetworkSimulation2.router4.pppg$o[1].channel delay 0s
attr mutable ""
attr unit s
par NetworkSimulation2.router4.pppg$o[1].channel datarate 2e+08bps
attr mutable ""
attr unit bps
par NetworkSimulation2.router4.pppg$o[1].channel ber 0
attr mutable ""
par NetworkSimulation2.router4.pppg$o[1].channel per 0
attr mutable ""
par NetworkSimulation2.router4.pppg$o[1].channel displayAsTooltip false
par NetworkSimulation2.router4.pppg$o[1].channel thruputDisplayFormat "\"\""
par NetworkSimulation2.router2.pppg$o[2].channel typename "\"networksimulation2.simulations.NetworkSimulation2.C\""
par NetworkSimulation2.router2.pppg$o[2].channel disabled false
attr mutable ""
par NetworkSimulation2.router2.pppg$o[2].channel delay 0s
attr mutable ""
attr unit s
par NetworkSimulation2.router2.pppg$o[2].channel datarate 2e+08bps
attr mutable ""
attr unit bps
par NetworkSimulation2.router2.pppg$o[2].channel ber 0
attr mutable ""
par NetworkSimulation2.router2.pppg$o[2].channel per 0
attr mutable ""
par NetworkSimulation2.router2.pppg$o[2].channel displayAsTooltip false
par NetworkSimulation2.router2.pppg$o[2].channel thruputDisplayFormat "\"\""
par NetworkSimulation2.router6.pppg$o[1].channel typename "\"networksimulation2.simulations.NetworkSimulation2.C\""
par NetworkSimulation2.router6.pppg$o[1].channel disabled false
attr mutable ""
par NetworkSimulation2.router6.pppg$o[1].channel delay 0s
attr mutable ""
attr unit s
par NetworkSimulation2.router6.pppg$o[1].channel datarate 2e+08bps
attr mutable ""
attr unit bps
par NetworkSimulation2.router6.pppg$o[1].channel ber 0
attr mutable ""
par NetworkSimulation2.router6.pppg$o[1].channel per 0
attr mutable ""
par NetworkSimulation2.router6.pppg$o[1].channel displayAsTooltip false
par NetworkSimulation2.router6.pppg$o[1].channel thruputDisplayFormat "\"\""
par NetworkSimulation2.router2.pppg$o[3].channel typename "\"networksimulation2.simulations.NetworkSimulation2.C\""
par NetworkSimulation2.router2.pppg$o[3].channel disabled false
attr mutable ""
par NetworkSimulation2.router2.pppg$o[3].channel delay 0s
attr mutable ""
attr unit s
par NetworkSimulation2.router2.pppg$o[3].channel datarate 2e+08bps
attr mutable ""
attr unit bps
par NetworkSimulation2.router2.pppg$o[3].channel ber 0
attr mutable ""
par NetworkSimulation2.router2.pppg$o[3].channel per 0
attr mutable ""
par NetworkSimulation2.router2.pppg$o[3].channel displayAsTooltip false
par NetworkSimulation2.router2.pppg$o[3].channel thruputDisplayFormat "\"\""
par NetworkSimulation2.router1.pppg$o[0].channel typename "\"networksimulation2.simulations.NetworkSimulation2.C\""
par NetworkSimulation2.router1.pppg$o[0].channel disabled false
attr mutable ""
par NetworkSimulation2.router1.pppg$o[0].channel delay 0s
attr mutable ""
attr unit s
par NetworkSimulation2.router1.pppg$o[0].channel datarate 2e+08bps
attr mutable ""
attr unit bps
par NetworkSimulation2.router1.pppg$o[0].channel ber 0
attr mutable ""
par NetworkSimulation2.router1.pppg$o[0].channel per 0
attr mutable ""
par NetworkSimulation2.router1.pppg$o[0].channel displayAsTooltip false
par NetworkSimulation2.router1.pppg$o[0].channel thruputDisplayFormat "\"\""
par NetworkSimulation2.router2.pppg$o[4].channel typename "\"networksimulation2.simulations.NetworkSimulation2.C\""
par NetworkSimulation2.router2.pppg$o[4].channel disabled false
attr mutable ""
par NetworkSimulation2.router2.pppg$o[4].channel delay 0s
attr mutable ""
attr unit s
par NetworkSimulation2.router2.pppg$o[4].channel datarate 2e+08bps
attr mutable ""
attr unit bps
par NetworkSimulation2.router2.pppg$o[4].channel ber 0
attr mutable ""
par NetworkSimulation2.router2.pppg$o[4].channel per 0
attr mutable ""
par NetworkSimulation2.router2.pppg$o[4].channel displayAsTooltip false
par NetworkSimulation2.router2.pppg$o[4].channel thruputDisplayFormat "\"\""
par NetworkSimulation2.host2.pppg$o[0].channel typename "\"networksimulation2.simulations.NetworkSimulation2.C\""
par NetworkSimulation2.host2.pppg$o[0].channel disabled false
attr mutable ""
par NetworkSimulation2.host2.pppg$o[0].channel delay 0s
attr mutable ""
attr unit s
par NetworkSimulation2.host2.pppg$o[0].channel datarate 2e+08bps
attr mutable ""
attr unit bps
par NetworkSimulation2.host2.pppg$o[0].channel ber 0
attr mutable ""
par NetworkSimulation2.host2.pppg$o[0].channel per 0
attr mutable ""
par NetworkSimulation2.host2.pppg$o[0].channel displayAsTooltip false
par NetworkSimulation2.host2.pppg$o[0].channel thruputDisplayFormat "\"\""
par NetworkSimulation2.router1.pppg$o[1].channel typename "\"networksimulation2.simulations.NetworkSimulation2.C\""
par NetworkSimulation2.router1.pppg$o[1].channel disabled false
attr mutable ""
par NetworkSimulation2.router1.pppg$o[1].channel delay 0s
attr mutable ""
attr unit s
par NetworkSimulation2.router1.pppg$o[1].channel datarate 2e+08bps
attr mutable ""
attr unit bps
par NetworkSimulation2.router1.pppg$o[1].channel ber 0
attr mutable ""
par NetworkSimulation2.router1.pppg$o[1].channel per 0
attr mutable ""
par NetworkSimulation2.router1.pppg$o[1].channel displayAsTooltip false
par NetworkSimulation2.router1.pppg$o[1].channel thruputDisplayFormat "\"\""
par NetworkSimulation2.router3.pppg$o[1].channel typename "\"networksimulation2.simulations.NetworkSimulation2.C\""
par NetworkSimulation2.router3.pppg$o[1].channel disabled false
attr mutable ""
par NetworkSimulation2.router3.pppg$o[1].channel delay 0s
attr mutable ""
attr unit s
par NetworkSimulation2.router3.pppg$o[1].channel datarate 2e+08bps
attr mutable ""
attr unit bps
par NetworkSimulation2.router3.pppg$o[1].channel ber 0
attr mutable ""
par NetworkSimulation2.router3.pppg$o[1].channel per 0
attr mutable ""
par NetworkSimulation2.router3.pppg$o[1].channel displayAsTooltip false
par NetworkSimulation2.router3.pppg$o[1].channel thruputDisplayFormat "\"\""
par NetworkSimulation2.router1.pppg$o[2].channel typename "\"networksimulation2.simulations.NetworkSimulation2.C\""
par NetworkSimulation2.router1.pppg$o[2].channel disabled false
attr mutable ""
par NetworkSimulation2.router1.pppg$o[2].channel delay 0s
attr mutable ""
attr unit s
par NetworkSimulation2.router1.pppg$o[2].channel datarate 2e+08bps
attr mutable ""
attr unit bps
par NetworkSimulation2.router1.pppg$o[2].channel ber 0
attr mutable ""
par NetworkSimulation2.router1.pppg$o[2].channel per 0
attr mutable ""
par NetworkSimulation2.router1.pppg$o[2].channel displayAsTooltip false
par NetworkSimulation2.router1.pppg$o[2].channel thruputDisplayFormat "\"\""
par NetworkSimulation2.router5.pppg$o[0].channel typename "\"networksimulation2.simulations.NetworkSimulation2.C\""
par NetworkSimulation2.router5.pppg$o[0].channel disabled false
attr mutable ""
par NetworkSimulation2.router5.pppg$o[0].channel delay 0s
attr mutable ""
attr unit s
par NetworkSimulation2.router5.pppg$o[0].channel datarate 2e+08bps
attr mutable ""
attr unit bps
par NetworkSimulation2.router5.pppg$o[0].channel ber 0
attr mutable ""
par NetworkSimulation2.router5.pppg$o[0].channel per 0
attr mutable ""
par NetworkSimulation2.router5.pppg$o[0].channel displayAsTooltip false
par NetworkSimulation2.router5.pppg$o[0].channel thruputDisplayFormat "\"\""
par NetworkSimulation2.router1.pppg$o[3].channel typename "\"networksimulation2.simulations.NetworkSimulation2.C\""
par NetworkSimulation2.router1.pppg$o[3].channel disabled false
attr mutable ""
par NetworkSimulation2.router1.pppg$o[3].channel delay 0s
attr mutable ""
attr unit s
par NetworkSimulation2.router1.pppg$o[3].channel datarate 2e+08bps
attr mutable ""
attr unit bps
par NetworkSimulation2.router1.pppg$o[3].channel ber 0
attr mutable ""
par NetworkSimulation2.router1.pppg$o[3].channel per 0
attr mutable ""
par NetworkSimulation2.router1.pppg$o[3].channel displayAsTooltip false
par NetworkSimulation2.router1.pppg$o[3].channel thruputDisplayFormat "\"\""
par NetworkSimulation2.host1.pppg$o[0].channel typename "\"networksimulation2.simulations.NetworkSimulation2.C\""
par NetworkSimulation2.host1.pppg$o[0].channel disabled false
attr mutable ""
par NetworkSimulation2.host1.pppg$o[0].channel delay 0s
attr mutable ""
attr unit s
par NetworkSimulation2.host1.pppg$o[0].channel datarate 2e+08bps
attr mutable ""
attr unit bps
par NetworkSimulation2.host1.pppg$o[0].channel ber 0
attr mutable ""
par NetworkSimulation2.host1.pppg$o[0].channel per 0
attr mutable ""
par NetworkSimulation2.host1.pppg$o[0].channel displayAsTooltip false
par NetworkSimulation2.host1.pppg$o[0].channel thruputDisplayFormat "\"\""
par NetworkSimulation2.router3.pppg$o[2].channel typename "\"networksimulation2.simulations.NetworkSimulation2.C\""
par NetworkSimulation2.router3.pppg$o[2].channel disabled false
attr mutable ""
par NetworkSimulation2.router3.pppg$o[2].channel delay 0s
attr mutable ""
attr unit s
par NetworkSimulation2.router3.pppg$o[2].channel datarate 2e+08bps
attr mutable ""
attr unit bps
par NetworkSimulation2.router3.pppg$o[2].channel ber 0
attr mutable ""
par NetworkSimulation2.router3.pppg$o[2].channel per 0
attr mutable ""
par NetworkSimulation2.router3.pppg$o[2].channel displayAsTooltip false
par NetworkSimulation2.router3.pppg$o[2].channel thruputDisplayFormat "\"\""
par NetworkSimulation2.router6.pppg$o[0].channel typename "\"networksimulation2.simulations.NetworkSimulation2.C\""
par NetworkSimulation2.router6.pppg$o[0].channel disabled false
attr mutable ""
par NetworkSimulation2.router6.pppg$o[0].channel delay 0s
attr mutable ""
attr unit s
par NetworkSimulation2.router6.pppg$o[0].channel datarate 2e+08bps
attr mutable ""
attr unit bps
par NetworkSimulation2.router6.pppg$o[0].channel ber 0
attr mutable ""
par NetworkSimulation2.router6.pppg$o[0].channel per 0
attr mutable ""
par NetworkSimulation2.router6.pppg$o[0].channel displayAsTooltip false
par NetworkSimulation2.router6.pppg$o[0].channel thruputDisplayFormat "\"\""
par NetworkSimulation2.router3.pppg$o[3].channel typename "\"networksimulation2.simulations.NetworkSimulation2.C\""
par NetworkSimulation2.router3.pppg$o[3].channel disabled false
attr mutable ""
par NetworkSimulation2.router3.pppg$o[3].channel delay 0s
attr mutable ""
attr unit s
par NetworkSimulation2.router3.pppg$o[3].channel datarate 2e+08bps
attr mutable ""
attr unit bps
par NetworkSimulation2.router3.pppg$o[3].channel ber 0
attr mutable ""
par NetworkSimulation2.router3.pppg$o[3].channel per 0
attr mutable ""
par NetworkSimulation2.router3.pppg$o[3].channel displayAsTooltip false
par NetworkSimulation2.router3.pppg$o[3].channel thruputDisplayFormat "\"\""
par NetworkSimulation2.router4.pppg$o[0].channel typename "\"networksimulation2.simulations.NetworkSimulation2.C\""
par NetworkSimulation2.router4.pppg$o[0].channel disabled false
attr mutable ""
par NetworkSimulation2.router4.pppg$o[0].channel delay 0s
attr mutable ""
attr unit s
par NetworkSimulation2.router4.pppg$o[0].channel datarate 2e+08bps
attr mutable ""
attr unit bps
par NetworkSimulation2.router4.pppg$o[0].channel ber 0
attr mutable ""
par NetworkSimulation2.router4.pppg$o[0].channel per 0
attr mutable ""
par NetworkSimulation2.router4.pppg$o[0].channel displayAsTooltip false
par NetworkSimulation2.router4.pppg$o[0].channel thruputDisplayFormat "\"\""
par NetworkSimulation2.router3.pppg$o[4].channel typename "\"networksimulation2.simulations.NetworkSimulation2.C\""
par NetworkSimulation2.router3.pppg$o[4].channel disabled false
attr mutable ""
par NetworkSimulation2.router3.pppg$o[4].channel delay 0s
attr mutable ""
attr unit s
par NetworkSimulation2.router3.pppg$o[4].channel datarate 2e+08bps
attr mutable ""
attr unit bps
par NetworkSimulation2.router3.pppg$o[4].channel ber 0
attr mutable ""
par NetworkSimulation2.router3.pppg$o[4].channel per 0
attr mutable ""
par NetworkSimulation2.router3.pppg$o[4].channel displayAsTooltip false
par NetworkSimulation2.router3.pppg$o[4].channel thruputDisplayFormat "\"\""
par NetworkSimulation2.host3.pppg$o[0].channel typename "\"networksimulation2.simulations.NetworkSimulation2.C\""
par NetworkSimulation2.host3.pppg$o[0].channel disabled false
attr mutable ""
par NetworkSimulation2.host3.pppg$o[0].channel delay 0s
attr mutable ""
attr unit s
par NetworkSimulation2.host3.pppg$o[0].channel datarate 2e+08bps
attr mutable ""
attr unit bps
par NetworkSimulation2.host3.pppg$o[0].channel ber 0
attr mutable ""
par NetworkSimulation2.host3.pppg$o[0].channel per 0
attr mutable ""
par NetworkSimulation2.host3.pppg$o[0].channel displayAsTooltip false
par NetworkSimulation2.host3.pppg$o[0].channel thruputDisplayFormat "\"\""
par NetworkSimulation2.router4.pppg$o[2].channel typename "\"networksimulation2.simulations.NetworkSimulation2.C\""
par NetworkSimulation2.router4.pppg$o[2].channel disabled false
attr mutable ""
par NetworkSimulation2.router4.pppg$o[2].channel delay 0s
attr mutable ""
attr unit s
par NetworkSimulation2.router4.pppg$o[2].channel datarate 2e+08bps
attr mutable ""
attr unit bps
par NetworkSimulation2.router4.pppg$o[2].channel ber 0
attr mutable ""
par NetworkSimulation2.router4.pppg$o[2].channel per 0
attr mutable ""
par NetworkSimulation2.router4.pppg$o[2].channel displayAsTooltip false
par NetworkSimulation2.router4.pppg$o[2].channel thruputDisplayFormat "\"\""
par NetworkSimulation2.router7.pppg$o[0].channel typename "\"networksimulation2.simulations.NetworkSimulation2.C\""
par NetworkSimulation2.router7.pppg$o[0].channel disabled false
attr mutable ""
par NetworkSimulation2.router7.pppg$o[0].channel delay 0s
attr mutable ""
attr unit s
par NetworkSimulation2.router7.pppg$o[0].channel datarate 2e+08bps
attr mutable ""
attr unit bps
par NetworkSimulation2.router7.pppg$o[0].channel ber 0
attr mutable ""
par NetworkSimulation2.router7.pppg$o[0].channel per 0
attr mutable ""
par NetworkSimulation2.router7.pppg$o[0].channel displayAsTooltip false
par NetworkSimulation2.router7.pppg$o[0].channel thruputDisplayFormat "\"\""
par NetworkSimulation2.router4.pppg$o[3].channel typename "\"networksimulation2.simulations.NetworkSimulation2.C\""
par NetworkSimulation2.router4.pppg$o[3].channel disabled false
attr mutable ""
par NetworkSimulation2.router4.pppg$o[3].channel delay 0s
attr mutable ""
attr unit s
par NetworkSimulation2.router4.pppg$o[3].channel datarate 2e+08bps
attr mutable ""
attr unit bps
par NetworkSimulation2.router4.pppg$o[3].channel ber 0
attr mutable ""
par NetworkSimulation2.router4.pppg$o[3].channel per 0
attr mutable ""
par NetworkSimulation2.router4.pppg$o[3].channel displayAsTooltip false
par NetworkSimulation2.router4.pppg$o[3].channel thruputDisplayFormat "\"\""
par NetworkSimulation2.host4.pppg$o[0].channel typename "\"networksimulation2.simulations.NetworkSimulation2.C\""
par NetworkSimulation2.host4.pppg$o[0].channel disabled false
attr mutable ""
par NetworkSimulation2.host4.pppg$o[0].channel delay 0s
attr mutable ""
attr unit s
par NetworkSimulation2.host4.pppg$o[0].channel datarate 2e+08bps
attr mutable ""
attr unit bps
par NetworkSimulation2.host4.pppg$o[0].channel ber 0
attr mutable ""
par NetworkSimulation2.host4.pppg$o[0].channel per 0
attr mutable ""
par NetworkSimulation2.host4.pppg$o[0].channel displayAsTooltip false
par NetworkSimulation2.host4.pppg$o[0].channel thruputDisplayFormat "\"\""
par NetworkSimulation2.router7.pppg$o[1].channel typename "\"networksimulation2.simulations.NetworkSimulation2.C\""
par NetworkSimulation2.router7.pppg$o[1].channel disabled false
attr mutable ""
par NetworkSimulation2.router7.pppg$o[1].channel delay 0s
attr mutable ""
attr unit s
par NetworkSimulation2.router7.pppg$o[1].channel datarate 2e+08bps
attr mutable ""
attr unit bps
par NetworkSimulation2.router7.pppg$o[1].channel ber 0
attr mutable ""
par NetworkSimulation2.router7.pppg$o[1].channel per 0
attr mutable ""
par NetworkSimulation2.router7.pppg$o[1].channel displayAsTooltip false
par NetworkSimulation2.router7.pppg$o[1].channel thruputDisplayFormat "\"\""
par NetworkSimulation2.host7.pppg$o[0].channel typename "\"networksimulation2.simulations.NetworkSimulation2.C\""
par NetworkSimulation2.host7.pppg$o[0].channel disabled false
attr mutable ""
par NetworkSimulation2.host7.pppg$o[0].channel delay 0s
attr mutable ""
attr unit s
par NetworkSimulation2.host7.pppg$o[0].channel datarate 2e+08bps
attr mutable ""
attr unit bps
par NetworkSimulation2.host7.pppg$o[0].channel ber 0
attr mutable ""
par NetworkSimulation2.host7.pppg$o[0].channel per 0
attr mutable ""
par NetworkSimulation2.host7.pppg$o[0].channel displayAsTooltip false
par NetworkSimulation2.host7.pppg$o[0].channel thruputDisplayFormat "\"\""
par NetworkSimulation2.router6.pppg$o[2].channel typename "\"networksimulation2.simulations.NetworkSimulation2.C\""
par NetworkSimulation2.router6.pppg$o[2].channel disabled false
attr mutable ""
par NetworkSimulation2.router6.pppg$o[2].channel delay 0s
attr mutable ""
attr unit s
par NetworkSimulation2.router6.pppg$o[2].channel datarate 2e+08bps
attr mutable ""
attr unit bps
par NetworkSimulation2.router6.pppg$o[2].channel ber 0
attr mutable ""
par NetworkSimulation2.router6.pppg$o[2].channel per 0
attr mutable ""
par NetworkSimulation2.router6.pppg$o[2].channel displayAsTooltip false
par NetworkSimulation2.router6.pppg$o[2].channel thruputDisplayFormat "\"\""
par NetworkSimulation2.host6.pppg$o[0].channel typename "\"networksimulation2.simulations.NetworkSimulation2.C\""
par NetworkSimulation2.host6.pppg$o[0].channel disabled false
attr mutable ""
par NetworkSimulation2.host6.pppg$o[0].channel delay 0s
attr mutable ""
attr unit s
par NetworkSimulation2.host6.pppg$o[0].channel datarate 2e+08bps
attr mutable ""
attr unit bps
par NetworkSimulation2.host6.pppg$o[0].channel ber 0
attr mutable ""
par NetworkSimulation2.host6.pppg$o[0].channel per 0
attr mutable ""
par NetworkSimulation2.host6.pppg$o[0].channel displayAsTooltip false
par NetworkSimulation2.host6.pppg$o[0].channel thruputDisplayFormat "\"\""
par NetworkSimulation2.router5.pppg$o[1].channel typename "\"networksimulation2.simulations.NetworkSimulation2.C\""
par NetworkSimulation2.router5.pppg$o[1].channel disabled false
attr mutable ""
par NetworkSimulation2.router5.pppg$o[1].channel delay 0s
attr mutable ""
attr unit s
par NetworkSimulation2.router5.pppg$o[1].channel datarate 2e+08bps
attr mutable ""
attr unit bps
par NetworkSimulation2.router5.pppg$o[1].channel ber 0
attr mutable ""
par NetworkSimulation2.router5.pppg$o[1].channel per 0
attr mutable ""
par NetworkSimulation2.router5.pppg$o[1].channel displayAsTooltip false
par NetworkSimulation2.router5.pppg$o[1].channel thruputDisplayFormat "\"\""
par NetworkSimulation2.host5.pppg$o[0].channel typename "\"networksimulation2.simulations.NetworkSimulation2.C\""
par NetworkSimulation2.host5.pppg$o[0].channel disabled false
attr mutable ""
par NetworkSimulation2.host5.pppg$o[0].channel delay 0s
attr mutable ""
attr unit s
par NetworkSimulation2.host5.pppg$o[0].channel datarate 2e+08bps
attr mutable ""
attr unit bps
par NetworkSimulation2.host5.pppg$o[0].channel ber 0
attr mutable ""
par NetworkSimulation2.host5.pppg$o[0].channel per 0
attr mutable ""
par NetworkSimulation2.host5.pppg$o[0].channel displayAsTooltip false
par NetworkSimulation2.host5.pppg$o[0].channel thruputDisplayFormat "\"\""
par NetworkSimulation2.host1.pppg$i[0].channel typename "\"ned.IdealChannel\""
par NetworkSimulation2.host1.ppp[0].phys$o.channel typename "\"ned.IdealChannel\""
par NetworkSimulation2.host1.interfaceTable typename "\"inet.networklayer.common.InterfaceTable\""
par NetworkSimulation2.host1.interfaceTable displayAddresses false
par NetworkSimulation2.host1.cb typename "\"inet.common.MessageDispatcher\""
par NetworkSimulation2.host1.cb displayStringTextFormat "\"processed %p pk (%l)\""
par NetworkSimulation2.host1.cb forwardServiceRegistration true
par NetworkSimulation2.host1.cb forwardProtocolRegistration true
par NetworkSimulation2.host1.bl typename "\"inet.common.MessageDispatcher\""
par NetworkSimulation2.host1.bl displayStringTextFormat "\"processed %p pk (%l)\""
par NetworkSimulation2.host1.bl forwardServiceRegistration true
par NetworkSimulation2.host1.bl forwardProtocolRegistration true
par NetworkSimulation2.host1.li typename "\"inet.common.MessageDispatcher\""
par NetworkSimulation2.host1.li displayStringTextFormat "\"processed %p pk (%l)\""
par NetworkSimulation2.host1.li forwardServiceRegistration true
par NetworkSimulation2.host1.li forwardProtocolRegistration true
par NetworkSimulation2.host1.lo[0].upperLayerIn.channel typename "\"ned.IdealChannel\""
par NetworkSimulation2.host1.lo[0].lo.upperLayerOut.channel typename "\"ned.IdealChannel\""
par NetworkSimulation2.host1.lo[0].lo typename "\"inet.linklayer.loopback.Loopback\""
par NetworkSimulation2.host1.lo[0].lo interfaceTableModule "\"NetworkSimulation2.host1.interfaceTable\""
par NetworkSimulation2.host1.lo[0].lo mtu 4470B
attr unit B
scalar NetworkSimulation2.host1.lo[0].lo rcvdPkFromHl:count 0
attr interpolationmode none
attr recordingmode count
attr source packetReceivedFromUpper
attr title "packets received from higher layer, count"
scalar NetworkSimulation2.host1.lo[0].lo rcvdPkFromHl:sum(packetBytes) 0
attr interpolationmode none
attr recordingmode sum(packetBytes)
attr source packetReceivedFromUpper
attr title "packets received from higher layer, sum(packetBytes)"
scalar NetworkSimulation2.host1.lo[0].lo passedUpPk:count 0
attr interpolationmode none
attr recordingmode count
attr source packetSentToUpper
attr title "packets passed to higher layer, count"
scalar NetworkSimulation2.host1.lo[0].lo passedUpPk:sum(packetBytes) 0
attr interpolationmode none
attr recordingmode sum(packetBytes)
attr source packetSentToUpper
attr title "packets passed to higher layer, sum(packetBytes)"
par NetworkSimulation2.host1.lo[0] typename "\"inet.linklayer.loopback.LoopbackInterface\""
par NetworkSimulation2.host1.lo[0] displayStringTextFormat "\"%a (%i)\\n%m\""
par NetworkSimulation2.host1.lo[0] recordPcap false
par NetworkSimulation2.host1.lo[0] numPcapRecorders 0
par NetworkSimulation2.host1.lo[0] interfaceTableModule "\"NetworkSimulation2.host1.interfaceTable\""
scalar NetworkSimulation2.host1.lo[0] packetDropInterfaceDown:count 0
attr interpolationmode none
attr recordingmode count
attr source packetDropReasonIsInterfaceDown(packetDropped)
attr title "packet drops: interface down, count"
scalar NetworkSimulation2.host1.lo[0] packetDropInterfaceDown:sum(packetBytes) 0
attr interpolationmode none
attr recordingmode sum(packetBytes)
attr source packetDropReasonIsInterfaceDown(packetDropped)
attr title "packet drops: interface down, sum(packetBytes)"
scalar NetworkSimulation2.host1.lo[0] packetDropNoCarrier:count 0
attr interpolationmode none
attr recordingmode count
attr source packetDropReasonIsNoCarrier(packetDropped)
attr title "packet drops: no carrier, count"
scalar NetworkSimulation2.host1.lo[0] packetDropNoCarrier:sum(packetBytes) 0
attr interpolationmode none
attr recordingmode sum(packetBytes)
attr source packetDropReasonIsNoCarrier(packetDropped)
attr title "packet drops: no carrier, sum(packetBytes)"
par NetworkSimulation2.host1.ppp[0].phys$i.channel typename "\"ned.IdealChannel\""
par NetworkSimulation2.host1.ppp[0].ppp.phys$o.channel typename "\"ned.IdealChannel\""
par NetworkSimulation2.host1.ppp[0].ppp.upperLayerOut.channel typename "\"ned.IdealChannel\""
par NetworkSimulation2.host1.ppp[0].upperLayerIn.channel typename "\"ned.IdealChannel\""
par NetworkSimulation2.host1.ppp[0].queue typename "\"inet.queueing.queue.DropTailQueue\""
par NetworkSimulation2.host1.ppp[0].queue displayStringTextFormat "\"contains %p pk (%l) pushed %u\\npulled %o removed %r dropped %d\""
par NetworkSimulation2.host1.ppp[0].queue packetCapacity 10000
par NetworkSimulation2.host1.ppp[0].queue dataCapacity -1b
attr unit b
par NetworkSimulation2.host1.ppp[0].queue dropperClass "\"inet::queueing::PacketAtCollectionEndDropper\""
par NetworkSimulation2.host1.ppp[0].queue comparatorClass "\"\""
par NetworkSimulation2.host1.ppp[0].queue bufferModule "\"\""
scalar NetworkSimulation2.host1.ppp[0].queue queueLength:last 0
attr autoWarmupFilter false
attr interpolationmode sample-hold
attr recordingmode last
attr source "warmup(atomic(constant0(packetPushEnded) + count(packetPushStarted) - count(packetPulled) - count(packetRemoved) - count(packetDropped)))"
attr title "queue length, last"
attr unit pk
scalar NetworkSimulation2.host1.ppp[0].queue queueLength:max 5
attr autoWarmupFilter false
attr interpolationmode sample-hold
attr recordingmode max
attr source "warmup(atomic(constant0(packetPushEnded) + count(packetPushStarted) - count(packetPulled) - count(packetRemoved) - count(packetDropped)))"
attr title "queue length, max"
attr unit pk
scalar NetworkSimulation2.host1.ppp[0].queue queueLength:timeavg 0.00022940241836623
attr autoWarmupFilter false
attr interpolationmode sample-hold
attr recordingmode timeavg
attr source "warmup(atomic(constant0(packetPushEnded) + count(packetPushStarted) - count(packetPulled) - count(packetRemoved) - count(packetDropped)))"
attr title "queue length, timeavg"
attr unit pk
scalar NetworkSimulation2.host1.ppp[0].queue queueBitLength:last 0
attr autoWarmupFilter false
attr interpolationmode sample-hold
attr recordingmode last
attr source "warmup(atomic(constant0(packetPushEnded) + sum(packetLength(packetPushStarted)) - sum(packetLength(packetPulled)) - sum(packetLength(packetRemoved)) - sum(packetLength(packetDropped))))"
attr title "queue bit length, last"
attr unit b
scalar NetworkSimulation2.host1.ppp[0].queue queueBitLength:max 18720
attr autoWarmupFilter false
attr interpolationmode sample-hold
attr recordingmode max
attr source "warmup(atomic(constant0(packetPushEnded) + sum(packetLength(packetPushStarted)) - sum(packetLength(packetPulled)) - sum(packetLength(packetRemoved)) - sum(packetLength(packetDropped))))"
attr title "queue bit length, max"
attr unit b
scalar NetworkSimulation2.host1.ppp[0].queue queueBitLength:timeavg 0.89302254265107
attr autoWarmupFilter false
attr interpolationmode sample-hold
attr recordingmode timeavg
attr source "warmup(atomic(constant0(packetPushEnded) + sum(packetLength(packetPushStarted)) - sum(packetLength(packetPulled)) - sum(packetLength(packetRemoved)) - sum(packetLength(packetDropped))))"
attr title "queue bit length, timeavg"
attr unit b
statistic NetworkSimulation2.host1.ppp[0].queue queueingTime:histogram
field count 3420
field mean 3.8166666666667e-05
field stddev 3.2635108504605e-05
field min 0
field max 9.9e-05
field sum 0.13053
field sqrsum 8.623302e-06
attr interpolationmode none
attr recordingmode histogram
attr source queueingTime(packetPulled)
attr title "queueing times"
attr unit s
bin	-inf	0
bin	0	570
bin	2e-06	0
bin	4e-06	0
bin	6e-06	0
bin	8e-06	0
bin	1e-05	0
bin	1.2e-05	570
bin	1.4e-05	0
bin	1.6e-05	0
bin	1.8e-05	0
bin	2e-05	0
bin	2.2e-05	570
bin	2.4e-05	0
bin	2.6e-05	0
bin	2.8e-05	0
bin	3e-05	0
bin	3.2e-05	0
bin	3.4e-05	0
bin	3.6e-05	570
bin	3.8e-05	0
bin	4e-05	0
bin	4.2e-05	0
bin	4.4e-05	0
bin	4.6e-05	0
bin	4.8e-05	0
bin	5e-05	0
bin	5.2e-05	0
bin	5.4e-05	0
bin	5.6e-05	570
bin	5.8e-05	0
bin	6e-05	0
bin	6.2e-05	0
bin	6.4e-05	0
bin	6.6e-05	0
bin	6.8e-05	0
bin	7e-05	0
bin	7.2e-05	0
bin	7.4e-05	0
bin	7.6e-05	0
bin	7.8e-05	0
bin	8e-05	0
bin	8.2e-05	0
bin	8.4e-05	0
bin	8.6e-05	0
bin	8.8e-05	0
bin	9e-05	0
bin	9.2e-05	0
bin	9.4e-05	0
bin	9.6e-05	0
bin	9.8e-05	570
bin	0.0001	0
bin	0.000102	0
bin	0.000104	0
bin	0.000106	0
bin	0.000108	0
bin	0.00011	0
bin	0.000112	0
bin	0.000114	0
bin	0.000116	0
bin	0.000118	0
bin	0.00012	0
bin	0.000122	0
bin	0.000124	0
scalar NetworkSimulation2.host1.ppp[0].queue outgoingPackets:count 3420
attr recordingmode count
attr source packetPulled
attr title "outgoing packets, count"
attr unit pk
scalar NetworkSimulation2.host1.ppp[0].queue outgoingPacketLengths:sum 12166080
attr interpolationmode none
attr recordingmode sum
attr source packetLength(packetPulled)
attr title "outgoing packet lengths, sum"
attr unit b
statistic NetworkSimulation2.host1.ppp[0].queue outgoingPacketLengths:histogram
field count 3420
field mean 3557.3333333333
field stddev 2235.400785439
field min 1824
field max 8224
field sum 12166080
field sqrsum 60363601920
attr interpolationmode none
attr recordingmode histogram
attr source packetLength(packetPulled)
attr title "outgoing packet lengths"
attr unit b
bin	-inf	0
bin	200	0
bin	400	0
bin	600	0
bin	800	0
bin	1000	0
bin	1200	0
bin	1400	0
bin	1600	0
bin	1800	1140
bin	2000	0
bin	2200	0
bin	2400	0
bin	2600	1140
bin	2800	0
bin	3000	0
bin	3200	0
bin	3400	0
bin	3600	0
bin	3800	0
bin	4000	0
bin	4200	570
bin	4400	0
bin	4600	0
bin	4800	0
bin	5000	0
bin	5200	0
bin	5400	0
bin	5600	0
bin	5800	0
bin	6000	0
bin	6200	0
bin	6400	0
bin	6600	0
bin	6800	0
bin	7000	0
bin	7200	0
bin	7400	0
bin	7600	0
bin	7800	0
bin	8000	0
bin	8200	570
bin	8400	0
bin	8600	0
bin	8800	0
bin	9000	0
bin	9200	0
bin	9400	0
bin	9600	0
bin	9800	0
bin	10000	0
statistic NetworkSimulation2.host1.ppp[0].queue flowQueueingTime:histogram
field count 0
field mean nan
field stddev nan
field min nan
field max nan
field sum 0
field sqrsum 0
attr interpolationmode none
attr recordingmode histogram
attr source queueingTime(demuxFlow(packetPulled))
attr title "flow queueing times"
attr unit s
bin	-inf	0
bin	0	0
bin	1	0
scalar NetworkSimulation2.host1.ppp[0].queue incomingPackets:count 3420
attr recordingmode count
attr source packetPushStarted
attr title "incoming packets, count"
attr unit pk
scalar NetworkSimulation2.host1.ppp[0].queue incomingPacketLengths:sum 12166080
attr interpolationmode none
attr recordingmode sum
attr source packetLength(packetPushStarted)
attr title "incoming packet lengths, sum"
attr unit b
statistic NetworkSimulation2.host1.ppp[0].queue incomingPacketLengths:histogram
field count 3420
field mean 3557.3333333333
field stddev 2235.400785439
field min 1824
field max 8224
field sum 12166080
field sqrsum 60363601920
attr interpolationmode none
attr recordingmode histogram
attr source packetLength(packetPushStarted)
attr title "incoming packet lengths"
attr unit b
bin	-inf	0
bin	200	0
bin	400	0
bin	600	0
bin	800	0
bin	1000	0
bin	1200	0
bin	1400	0
bin	1600	0
bin	1800	1140
bin	2000	0
bin	2200	0
bin	2400	0
bin	2600	1140
bin	2800	0
bin	3000	0
bin	3200	0
bin	3400	0
bin	3600	0
bin	3800	0
bin	4000	0
bin	4200	570
bin	4400	0
bin	4600	0
bin	4800	0
bin	5000	0
bin	5200	0
bin	5400	0
bin	5600	0
bin	5800	0
bin	6000	0
bin	6200	0
bin	6400	0
bin	6600	0
bin	6800	0
bin	7000	0
bin	7200	0
bin	7400	0
bin	7600	0
bin	7800	0
bin	8000	0
bin	8200	570
bin	8400	0
bin	8600	0
bin	8800	0
bin	9000	0
bin	9200	0
bin	9400	0
bin	9600	0
bin	9800	0
bin	10000	0
scalar NetworkSimulation2.host1.ppp[0].queue droppedPacketsQueueOverflow:count 0
attr interpolationmode none
attr recordingmode count
attr source packetDropReasonIsQueueOverflow(packetDropped)
attr title "dropped packets: queue overflow, count"
attr unit pk
scalar NetworkSimulation2.host1.ppp[0].queue droppedPacketLengthsQueueOverflow:sum 0
attr interpolationmode none
attr recordingmode sum
attr source packetLength(packetDropReasonIsQueueOverflow(packetDropped))
attr title "dropped packet lengths: queue overflow, sum"
attr unit b
par NetworkSimulation2.host1.ppp[0].ppp typename "\"inet.linklayer.ppp.Ppp\""
par NetworkSimulation2.host1.ppp[0].ppp interfaceTableModule "\"NetworkSimulation2.host1.interfaceTable\""
par NetworkSimulation2.host1.ppp[0].ppp displayStringTextFormat "\"rate: %b\\nsent: %s, rcvd: %r\\nqueue: %q, drop: %d\""
par NetworkSimulation2.host1.ppp[0].ppp sendRawBytes false
par NetworkSimulation2.host1.ppp[0].ppp mtu 4470B
attr unit B
par NetworkSimulation2.host1.ppp[0].ppp stopOperationExtraTime -1s
attr unit s
par NetworkSimulation2.host1.ppp[0].ppp stopOperationTimeout 2s
attr unit s
scalar NetworkSimulation2.host1.ppp[0].ppp txPk:count 3420
attr interpolationmode none
attr recordingmode count
attr source packetSentToLower
attr title "packets transmitted, count"
scalar NetworkSimulation2.host1.ppp[0].ppp txPk:sum(packetBytes) 1544700
attr interpolationmode none
attr recordingmode sum(packetBytes)
attr source packetSentToLower
attr title "packets transmitted, sum(packetBytes)"
scalar NetworkSimulation2.host1.ppp[0].ppp rcvdPkFromHl:count 3420
attr interpolationmode none
attr recordingmode count
attr source packetReceivedFromUpper
attr title "packets received from higher layer, count"
scalar NetworkSimulation2.host1.ppp[0].ppp rcvdPkFromHl:sum(packetBytes) 1520760
attr interpolationmode none
attr recordingmode sum(packetBytes)
attr source packetReceivedFromUpper
attr title "packets received from higher layer, sum(packetBytes)"
scalar NetworkSimulation2.host1.ppp[0].ppp passedUpPk:count 4039
attr interpolationmode none
attr recordingmode count
attr source packetSentToUpper
attr title "packets passed to higher layer, count"
scalar NetworkSimulation2.host1.ppp[0].ppp passedUpPk:sum(packetBytes) 1317576
attr interpolationmode none
attr recordingmode sum(packetBytes)
attr source packetSentToUpper
attr title "packets passed to higher layer, sum(packetBytes)"
scalar NetworkSimulation2.host1.ppp[0].ppp packetDropIncorrectlyReceived:count 0
attr interpolationmode none
attr recordingmode count
attr source packetDropReasonIsIncorrectlyReceived(packetDropped)
attr title "packet drop: incorrectly received, count"
scalar NetworkSimulation2.host1.ppp[0].ppp packetDropIncorrectlyReceived:sum(packetBytes) 0
attr interpolationmode none
attr recordingmode sum(packetBytes)
attr source packetDropReasonIsIncorrectlyReceived(packetDropped)
attr title "packet drop: incorrectly received, sum(packetBytes)"
scalar NetworkSimulation2.host1.ppp[0].ppp packetDropInterfaceDown:count 0
attr interpolationmode none
attr recordingmode count
attr source packetDropReasonIsInterfaceDown(packetDropped)
attr title "packet drop: interface down, count"
scalar NetworkSimulation2.host1.ppp[0].ppp packetDropInterfaceDown:sum(packetBytes) 0
attr interpolationmode none
attr recordingmode sum(packetBytes)
attr source packetDropReasonIsInterfaceDown(packetDropped)
attr title "packet drop: interface down, sum(packetBytes)"
scalar NetworkSimulation2.host1.ppp[0].ppp rxPkOk:count 4039
attr interpolationmode none
attr recordingmode count
attr source rxPkOk
attr title "packets received OK, count"
scalar NetworkSimulation2.host1.ppp[0].ppp rxPkOk:sum(packetBytes) 1345849
attr interpolationmode none
attr recordingmode sum(packetBytes)
attr source rxPkOk
attr title "packets received OK, sum(packetBytes)"
scalar NetworkSimulation2.host1.ppp[0].ppp transmissionState:timeavg 0.00010839296260311
attr interpolationmode sample-hold
attr recordingmode timeavg
attr source transmissionStateChanged
attr title "tx state, timeavg"
par NetworkSimulation2.host1.ppp[0] typename "\"inet.linklayer.ppp.PppInterface\""
par NetworkSimulation2.host1.ppp[0] displayStringTextFormat "\"%a (%i)\\n%m\""
par NetworkSimulation2.host1.ppp[0] recordPcap false
par NetworkSimulation2.host1.ppp[0] numPcapRecorders 0
par NetworkSimulation2.host1.ppp[0] interfaceTableModule "\"NetworkSimulation2.host1.interfaceTable\""
scalar NetworkSimulation2.host1.ppp[0] packetDropInterfaceDown:count 0
attr interpolationmode none
attr recordingmode count
attr source packetDropReasonIsInterfaceDown(packetDropped)
attr title "packet drops: interface down, count"
scalar NetworkSimulation2.host1.ppp[0] packetDropInterfaceDown:sum(packetBytes) 0
attr interpolationmode none
attr recordingmode sum(packetBytes)
attr source packetDropReasonIsInterfaceDown(packetDropped)
attr title "packet drops: interface down, sum(packetBytes)"
scalar NetworkSimulation2.host1.ppp[0] packetDropNoCarrier:count 0
attr interpolationmode none
attr recordingmode count
attr source packetDropReasonIsNoCarrier(packetDropped)
attr title "packet drops: no carrier, count"
scalar NetworkSimulation2.host1.ppp[0] packetDropNoCarrier:sum(packetBytes) 0
attr interpolationmode none
attr recordingmode sum(packetBytes)
attr source packetDropReasonIsNoCarrier(packetDropped)
attr title "packet drops: no carrier, sum(packetBytes)"
par NetworkSimulation2.host1.ipv4.transportIn.channel typename "\"ned.IdealChannel\""
par NetworkSimulation2.host1.ipv4.up.out[0].channel typename "\"ned.IdealChannel\""
par NetworkSimulation2.host1.ipv4.lp.out[2].channel typename "\"ned.IdealChannel\""
par NetworkSimulation2.host1.ipv4.ifIn.channel typename "\"ned.IdealChannel\""
par NetworkSimulation2.host1.ipv4.configurator typename "\"inet.networklayer.configurator.ipv4.Ipv4NodeConfigurator\""
par NetworkSimulation2.host1.ipv4.configurator interfaceTableModule "\"NetworkSimulation2.host1.interfaceTable\""
par NetworkSimulation2.host1.ipv4.configurator routingTableModule "\"NetworkSimulation2.host1.ipv4.routingTable\""
par NetworkSimulation2.host1.ipv4.configurator networkConfiguratorModule "\"configurator\""
par NetworkSimulation2.host1.ipv4.configurator configureRoutingTable true
par NetworkSimulation2.host1.ipv4.routingTable typename "\"inet.networklayer.ipv4.Ipv4RoutingTable\""
par NetworkSimulation2.host1.ipv4.routingTable interfaceTableModule "\"NetworkSimulation2.host1.interfaceTable\""
par NetworkSimulation2.host1.ipv4.routingTable routerId "\"auto\""
par NetworkSimulation2.host1.ipv4.routingTable netmaskRoutes "\"*\""
par NetworkSimulation2.host1.ipv4.routingTable forwarding false
par NetworkSimulation2.host1.ipv4.routingTable multicastForwarding false
par NetworkSimulation2.host1.ipv4.routingTable useAdminDist false
par NetworkSimulation2.host1.ipv4.routingTable routingFile "\"\""
par NetworkSimulation2.host1.ipv4.natTable typename "\"inet.networklayer.ipv4.Ipv4NatTable\""
par NetworkSimulation2.host1.ipv4.natTable networkProtocolModule "\"^.ip\""
par NetworkSimulation2.host1.ipv4.natTable config "<config/> at content:1"
par NetworkSimulation2.host1.ipv4.up typename "\"inet.common.MessageDispatcher\""
par NetworkSimulation2.host1.ipv4.up displayStringTextFormat "\"processed %p pk (%l)\""
par NetworkSimulation2.host1.ipv4.up forwardServiceRegistration true
par NetworkSimulation2.host1.ipv4.up forwardProtocolRegistration true
par NetworkSimulation2.host1.ipv4.igmp typename "\"inet.networklayer.ipv4.Igmpv2\""
par NetworkSimulation2.host1.ipv4.igmp interfaceTableModule "\"NetworkSimulation2.host1.interfaceTable\""
par NetworkSimulation2.host1.ipv4.igmp routingTableModule "\"NetworkSimulation2.host1.ipv4.routingTable\""
par NetworkSimulation2.host1.ipv4.igmp crcMode "\"declared\""
attr enum declared,computed
par NetworkSimulation2.host1.ipv4.igmp enabled true
par NetworkSimulation2.host1.ipv4.igmp robustnessVariable 2
par NetworkSimulation2.host1.ipv4.igmp queryInterval 125s
attr unit s
par NetworkSimulation2.host1.ipv4.igmp queryResponseInterval 10s
attr unit s
par NetworkSimulation2.host1.ipv4.igmp groupMembershipInterval 260s
attr unit s
par NetworkSimulation2.host1.ipv4.igmp otherQuerierPresentInterval 255s
attr unit s
par NetworkSimulation2.host1.ipv4.igmp startupQueryInterval 31.25s
attr unit s
par NetworkSimulation2.host1.ipv4.igmp startupQueryCount 2
par NetworkSimulation2.host1.ipv4.igmp lastMemberQueryInterval 1s
attr unit s
par NetworkSimulation2.host1.ipv4.igmp lastMemberQueryCount 2
par NetworkSimulation2.host1.ipv4.igmp unsolicitedReportInterval 10s
attr unit s
par NetworkSimulation2.host1.ipv4.icmp typename "\"inet.networklayer.ipv4.Icmp\""
par NetworkSimulation2.host1.ipv4.icmp interfaceTableModule "\"NetworkSimulation2.host1.interfaceTable\""
par NetworkSimulation2.host1.ipv4.icmp routingTableModule "\"NetworkSimulation2.host1.ipv4.routingTable\""
par NetworkSimulation2.host1.ipv4.icmp crcMode "\"declared\""
attr enum declared,computed
attr mutable ""
par NetworkSimulation2.host1.ipv4.icmp quoteLength 8B
attr mutable ""
attr unit B
par NetworkSimulation2.host1.ipv4.mp typename "\"inet.common.MessageDispatcher\""
par NetworkSimulation2.host1.ipv4.mp displayStringTextFormat "\"processed %p pk (%l)\""
par NetworkSimulation2.host1.ipv4.mp forwardServiceRegistration true
par NetworkSimulation2.host1.ipv4.mp forwardProtocolRegistration true
par NetworkSimulation2.host1.ipv4.ip typename "\"inet.networklayer.ipv4.Ipv4\""
par NetworkSimulation2.host1.ipv4.ip interfaceTableModule "\"NetworkSimulation2.host1.interfaceTable\""
par NetworkSimulation2.host1.ipv4.ip routingTableModule "\"NetworkSimulation2.host1.ipv4.routingTable\""
par NetworkSimulation2.host1.ipv4.ip arpModule "\"NetworkSimulation2.host1.ipv4.arp\""
par NetworkSimulation2.host1.ipv4.ip icmpModule "\"NetworkSimulation2.host1.ipv4.icmp\""
par NetworkSimulation2.host1.ipv4.ip crcMode "\"declared\""
attr enum declared,computed
par NetworkSimulation2.host1.ipv4.ip timeToLive 32
par NetworkSimulation2.host1.ipv4.ip multicastTimeToLive 32
par NetworkSimulation2.host1.ipv4.ip fragmentTimeout 60s
attr unit s
par NetworkSimulation2.host1.ipv4.ip limitedBroadcast false
par NetworkSimulation2.host1.ipv4.ip directBroadcastInterfaces "\"\""
scalar NetworkSimulation2.host1.ipv4.ip packetDropAddressResolutionFailed:count 0
attr interpolationmode none
attr recordingmode count
attr source packetDropReasonIsAddressResolutionFailed(packetDropped)
attr title "packet drop: address resolution failed, count"
scalar NetworkSimulation2.host1.ipv4.ip packetDropAddressResolutionFailed:sum(packetBytes) 0
attr interpolationmode none
attr recordingmode sum(packetBytes)
attr source packetDropReasonIsAddressResolutionFailed(packetDropped)
attr title "packet drop: address resolution failed, sum(packetBytes)"
scalar NetworkSimulation2.host1.ipv4.ip packetDropHopLimitReached:count 0
attr interpolationmode none
attr recordingmode count
attr source packetDropReasonIsHopLimitReached(packetDropped)
attr title "packet drop: hop limit reached, count"
scalar NetworkSimulation2.host1.ipv4.ip packetDropHopLimitReached:sum(packetBytes) 0
attr interpolationmode none
attr recordingmode sum(packetBytes)
attr source packetDropReasonIsHopLimitReached(packetDropped)
attr title "packet drop: hop limit reached, sum(packetBytes)"
scalar NetworkSimulation2.host1.ipv4.ip packetDropForwardingDisabled:count 0
attr interpolationmode none
attr recordingmode count
attr source packetDropReasonIsForwardingDisabled(packetDropped)
attr title "packet drop: forwarding disabled, count"
scalar NetworkSimulation2.host1.ipv4.ip packetDropForwardingDisabled:sum(packetBytes) 0
attr interpolationmode none
attr recordingmode sum(packetBytes)
attr source packetDropReasonIsForwardingDisabled(packetDropped)
attr title "packet drop: forwarding disabled, sum(packetBytes)"
scalar NetworkSimulation2.host1.ipv4.ip packetDropNoInterfaceFound:count 0
attr interpolationmode none
attr recordingmode count
attr source packetDropReasonIsNoInterfaceFound(packetDropped)
attr title "packet drop: no interface found, count"
scalar NetworkSimulation2.host1.ipv4.ip packetDropNoInterfaceFound:sum(packetBytes) 0
attr interpolationmode none
attr recordingmode sum(packetBytes)
attr source packetDropReasonIsNoInterfaceFound(packetDropped)
attr title "packet drop: no interface found, sum(packetBytes)"
scalar NetworkSimulation2.host1.ipv4.ip packetDropNoRouteFound:count 0
attr interpolationmode none
attr recordingmode count
attr source packetDropReasonIsNoRouteFound(packetDropped)
attr title "packet drop: no route found, count"
scalar NetworkSimulation2.host1.ipv4.ip packetDropNoRouteFound:sum(packetBytes) 0
attr interpolationmode none
attr recordingmode sum(packetBytes)
attr source packetDropReasonIsNoRouteFound(packetDropped)
attr title "packet drop: no route found, sum(packetBytes)"
scalar NetworkSimulation2.host1.ipv4.ip packetDropUndefined:count 0
attr interpolationmode none
attr recordingmode count
attr source packetDropReasonIsUndefined(packetDropped)
attr title "packet drop: undefined, count"
scalar NetworkSimulation2.host1.ipv4.ip packetDropUndefined:sum(packetBytes) 0
attr interpolationmode none
attr recordingmode sum(packetBytes)
attr source packetDropReasonIsUndefined(packetDropped)
attr title "packet drop: undefined, sum(packetBytes)"
par NetworkSimulation2.host1.ipv4.arp typename "\"inet.networklayer.arp.ipv4.Arp\""
par NetworkSimulation2.host1.ipv4.arp interfaceTableModule "\"NetworkSimulation2.host1.interfaceTable\""
par NetworkSimulation2.host1.ipv4.arp routingTableModule "\"NetworkSimulation2.host1.ipv4.routingTable\""
par NetworkSimulation2.host1.ipv4.arp retryTimeout 1s
attr unit s
par NetworkSimulation2.host1.ipv4.arp retryCount 3
par NetworkSimulation2.host1.ipv4.arp cacheTimeout 120s
attr unit s
par NetworkSimulation2.host1.ipv4.arp proxyArpInterfaces "\"\""
scalar NetworkSimulation2.host1.ipv4.arp arpReplySent:count 0
attr recordingmode count
attr source arpReplySent
attr title "ARP replies sent, count"
scalar NetworkSimulation2.host1.ipv4.arp arpReplySent:sum(packetBytes) 0
attr recordingmode sum(packetBytes)
attr source arpReplySent
attr title "ARP replies sent, sum(packetBytes)"
scalar NetworkSimulation2.host1.ipv4.arp arpRequestSent:count 0
attr recordingmode count
attr source arpRequestSent
attr title "ARP request sent, count"
scalar NetworkSimulation2.host1.ipv4.arp arpRequestSent:sum(packetBytes) 0
attr recordingmode sum(packetBytes)
attr source arpRequestSent
attr title "ARP request sent, sum(packetBytes)"
scalar NetworkSimulation2.host1.ipv4.arp arpResolutionFailed:count 0
attr recordingmode count
attr title "ARP failed resolutions, count"
scalar NetworkSimulation2.host1.ipv4.arp arpResolutionCompleted:count 0
attr recordingmode count
attr title "ARP completed resolutions, count"
scalar NetworkSimulation2.host1.ipv4.arp arpResolutionInitiated:count 0
attr recordingmode count
attr title "ARP initiated resolutions, count"
par NetworkSimulation2.host1.ipv4.lp typename "\"inet.common.MessageDispatcher\""
par NetworkSimulation2.host1.ipv4.lp displayStringTextFormat "\"processed %p pk (%l)\""
par NetworkSimulation2.host1.ipv4.lp forwardServiceRegistration true
par NetworkSimulation2.host1.ipv4.lp forwardProtocolRegistration true
par NetworkSimulation2.host1.ipv4 typename "\"inet.networklayer.ipv4.Ipv4NetworkLayer\""
par NetworkSimulation2.host1.ipv4 forwarding false
par NetworkSimulation2.host1.ipv4 multicastForwarding false
par NetworkSimulation2.host1.ipv4 interfaceTableModule "\"NetworkSimulation2.host1.interfaceTable\""
par NetworkSimulation2.host1.ipv4 displayStringTextFormat "\"%i\""
par NetworkSimulation2.host1.nl typename "\"inet.common.MessageDispatcher\""
par NetworkSimulation2.host1.nl displayStringTextFormat "\"processed %p pk (%l)\""
par NetworkSimulation2.host1.nl forwardServiceRegistration true
par NetworkSimulation2.host1.nl forwardProtocolRegistration true
par NetworkSimulation2.host1.udp typename "\"inet.transportlayer.udp.Udp\""
par NetworkSimulation2.host1.udp interfaceTableModule "\"NetworkSimulation2.host1.interfaceTable\""
par NetworkSimulation2.host1.udp icmpModule "\"^.ipv4.icmp\""
par NetworkSimulation2.host1.udp icmpv6Module "\"^.ipv6.icmpv6\""
par NetworkSimulation2.host1.udp crcMode "\"declared\""
attr enum disabled,declared,computed
par NetworkSimulation2.host1.udp defaultMulticastLoop true
scalar NetworkSimulation2.host1.udp packetReceived:count 3388
attr interpolationmode none
attr recordingmode count
attr source packetReceived
attr title "packets received, count"
scalar NetworkSimulation2.host1.udp packetReceived:sum(packetBytes) 1212904
attr interpolationmode none
attr recordingmode sum(packetBytes)
attr source packetReceived
attr title "packets received, sum(packetBytes)"
scalar NetworkSimulation2.host1.udp packetSent:count 3420
attr interpolationmode none
attr recordingmode count
attr source packetSent
attr title "packets sent, count"
scalar NetworkSimulation2.host1.udp packetSent:sum(packetBytes) 1452360
attr interpolationmode none
attr recordingmode sum(packetBytes)
attr source packetSent
attr title "packets sent, sum(packetBytes)"
scalar NetworkSimulation2.host1.udp passedUpPk:count 3388
attr interpolationmode none
attr recordingmode count
attr source packetSentToUpper
attr title "packets passed up, count"
scalar NetworkSimulation2.host1.udp droppedPkWrongPort:count 0
attr interpolationmode none
attr recordingmode count
attr source packetDropReasonIsNoPortFound(packetDropped)
attr title "packets dropped (wrong port), count"
scalar NetworkSimulation2.host1.udp droppedPkBadChecksum:count 0
attr interpolationmode none
attr recordingmode count
attr source packetDropReasonIsIncorrectlyReceived(packetDropped)
attr title "packets dropped (checksum error), count"
par NetworkSimulation2.host1.tcp typename "\"inet.transportlayer.tcp.Tcp\""
par NetworkSimulation2.host1.tcp crcMode "\"declared\""
attr enum declared,computed
par NetworkSimulation2.host1.tcp advertisedWindow 7504
par NetworkSimulation2.host1.tcp delayedAcksEnabled false
par NetworkSimulation2.host1.tcp nagleEnabled true
par NetworkSimulation2.host1.tcp limitedTransmitEnabled false
par NetworkSimulation2.host1.tcp increasedIWEnabled false
par NetworkSimulation2.host1.tcp sackSupport false
par NetworkSimulation2.host1.tcp windowScalingSupport false
par NetworkSimulation2.host1.tcp windowScalingFactor -1
par NetworkSimulation2.host1.tcp timestampSupport false
par NetworkSimulation2.host1.tcp mss 536
par NetworkSimulation2.host1.tcp msl 120s
attr unit s
par NetworkSimulation2.host1.tcp tcpAlgorithmClass "\"TcpReno\""
attr enum TcpVegas,TcpWestwood,TcpNewReno,TcpReno,TcpTahoe,TcpNoCongestionControl
par NetworkSimulation2.host1.tcp useDataNotification false
par NetworkSimulation2.host1.tcp dupthresh 3
par NetworkSimulation2.host1.tcp initialSsthresh 4294967295
par NetworkSimulation2.host1.tcp stopOperationExtraTime 0s
attr unit s
par NetworkSimulation2.host1.tcp stopOperationTimeout 2s
attr unit s
par NetworkSimulation2.host1.tcp ecnWillingness false
par NetworkSimulation2.host1.tcp dctcpGamma 0.0625
par NetworkSimulation2.host1.tn typename "\"inet.common.MessageDispatcher\""
par NetworkSimulation2.host1.tn displayStringTextFormat "\"processed %p pk (%l)\""
par NetworkSimulation2.host1.tn forwardServiceRegistration true
par NetworkSimulation2.host1.tn forwardProtocolRegistration true
par NetworkSimulation2.host1.app[0] typename "\"inet.applications.udpapp.UdpBasicBurst\""
par NetworkSimulation2.host1.app[0] interfaceTableModule "\"NetworkSimulation2.host1.interfaceTable\""
par NetworkSimulation2.host1.app[0] destAddresses "\"host1\""
par NetworkSimulation2.host1.app[0] excludeLocalDestAddresses true
par NetworkSimulation2.host1.app[0] chooseDestAddrMode "\"once\""
attr enum once,perBurst,perSend
par NetworkSimulation2.host1.app[0] destAddrRNG 0
par NetworkSimulation2.host1.app[0] localPort 1000
par NetworkSimulation2.host1.app[0] destPort 1000
par NetworkSimulation2.host1.app[0] startTime 1s
attr unit s
par NetworkSimulation2.host1.app[0] stopTime -1s
attr unit s
par NetworkSimulation2.host1.app[0] messageLength 500B
attr unit B
par NetworkSimulation2.host1.app[0] burstDuration 0s
attr unit s
par NetworkSimulation2.host1.app[0] sleepDuration 0s
attr unit s
par NetworkSimulation2.host1.app[0] sendInterval 1s
attr unit s
par NetworkSimulation2.host1.app[0] delayLimit 0s
attr unit s
par NetworkSimulation2.host1.app[0] timeToLive -1
par NetworkSimulation2.host1.app[0] dontFragment false
par NetworkSimulation2.host1.app[0] dscp -1
par NetworkSimulation2.host1.app[0] tos 0
par NetworkSimulation2.host1.app[0] stopOperationExtraTime -1s
attr unit s
par NetworkSimulation2.host1.app[0] stopOperationTimeout 2s
attr unit s
scalar NetworkSimulation2.host1.app[0] "Total sent" 0
scalar NetworkSimulation2.host1.app[0] "Total received" 2824
scalar NetworkSimulation2.host1.app[0] "Total deleted" 0
scalar NetworkSimulation2.host1.app[0] outOfOrderPk:count 0
attr interpolationmode none
attr recordingmode count
attr source outOfOrderPk
attr title "packets received out of order, count"
scalar NetworkSimulation2.host1.app[0] outOfOrderPk:sum(packetBytes) 0
attr interpolationmode none
attr recordingmode sum(packetBytes)
attr source outOfOrderPk
attr title "packets received out of order, sum(packetBytes)"
scalar NetworkSimulation2.host1.app[0] packetReceived:count 2824
attr interpolationmode none
attr recordingmode count
attr source packetReceived
attr title "packets received, count"
scalar NetworkSimulation2.host1.app[0] packetReceived:sum(packetBytes) 1073000
attr interpolationmode none
attr recordingmode sum(packetBytes)
attr source packetReceived
attr title "packets received, sum(packetBytes)"
statistic NetworkSimulation2.host1.app[0] endToEndDelay:histogram
field count 2824
field mean 7.2652691218126e-05
field stddev 2.4832473907734e-05
field min 4.02e-05
field max 0.000147
field sum 0.20517119999999
field sqrsum 1.664704776e-05
attr interpolationmode none
attr recordingmode histogram
attr source dataAge(packetReceived)
attr title delay
attr unit s
bin	-inf	0
bin	1.2e-05	0
bin	1.4e-05	0
bin	1.6e-05	0
bin	1.8e-05	0
bin	2e-05	0
bin	2.2e-05	0
bin	2.4e-05	0
bin	2.6e-05	0
bin	2.8e-05	0
bin	3e-05	0
bin	3.2e-05	0
bin	3.4e-05	0
bin	3.6e-05	0
bin	3.8e-05	0
bin	4e-05	565
bin	4.2e-05	0
bin	4.4e-05	0
bin	4.6e-05	0
bin	4.8e-05	0
bin	5e-05	0
bin	5.2e-05	565
bin	5.4e-05	0
bin	5.6e-05	0
bin	5.8e-05	0
bin	6e-05	0
bin	6.2e-05	0
bin	6.4e-05	0
bin	6.6e-05	0
bin	6.8e-05	0
bin	7e-05	565
bin	7.2e-05	0
bin	7.4e-05	0
bin	7.6e-05	0
bin	7.8e-05	0
bin	8e-05	0
bin	8.2e-05	0
bin	8.4e-05	0
bin	8.6e-05	0
bin	8.8e-05	565
bin	9e-05	0
bin	9.2e-05	0
bin	9.4e-05	0
bin	9.6e-05	0
bin	9.8e-05	0
bin	0.0001	0
bin	0.000102	0
bin	0.000104	0
bin	0.000106	0
bin	0.000108	559
bin	0.00011	0
bin	0.000112	0
bin	0.000114	0
bin	0.000116	0
bin	0.000118	0
bin	0.00012	0
bin	0.000122	0
bin	0.000124	0
bin	0.000126	0
bin	0.000128	0
bin	0.00013	0
bin	0.000132	0
bin	0.000134	0
bin	0.000136	0
bin	0.000138	0
bin	0.00014	0
bin	0.000142	0
bin	0.000144	0
bin	0.000146	5
bin	0.000148	0
bin	0.00015	0
bin	0.000152	0
bin	0.000154	0
bin	0.000156	0
bin	0.000158	0
bin	0.00016	0
bin	0.000162	0
bin	0.000164	0
bin	0.000166	0
bin	0.000168	0
bin	0.00017	0
bin	0.000172	0
bin	0.000174	0
scalar NetworkSimulation2.host1.app[0] packetSent:count 0
attr interpolationmode none
attr recordingmode count
attr source packetSent
attr title "packets sent, count"
scalar NetworkSimulation2.host1.app[0] packetSent:sum(packetBytes) 0
attr interpolationmode none
attr recordingmode sum(packetBytes)
attr source packetSent
attr title "packets sent, sum(packetBytes)"
scalar NetworkSimulation2.host1.app[0] dropPk:count 0
attr interpolationmode none
attr recordingmode count
attr source packetDropped
attr title "packets dropped, count"
scalar NetworkSimulation2.host1.app[0] dropPk:sum(packetBytes) 0
attr interpolationmode none
attr recordingmode sum(packetBytes)
attr source packetDropped
attr title "packets dropped, sum(packetBytes)"
par NetworkSimulation2.host1.app[1] typename "\"inet.applications.udpapp.UdpBasicBurst\""
par NetworkSimulation2.host1.app[1] interfaceTableModule "\"NetworkSimulation2.host1.interfaceTable\""
par NetworkSimulation2.host1.app[1] destAddresses "\"host2\""
par NetworkSimulation2.host1.app[1] excludeLocalDestAddresses true
par NetworkSimulation2.host1.app[1] chooseDestAddrMode "\"once\""
attr enum once,perBurst,perSend
par NetworkSimulation2.host1.app[1] destAddrRNG 0
par NetworkSimulation2.host1.app[1] localPort 1001
par NetworkSimulation2.host1.app[1] destPort 1001
par NetworkSimulation2.host1.app[1] startTime 1s
attr unit s
par NetworkSimulation2.host1.app[1] stopTime -1s
attr unit s
par NetworkSimulation2.host1.app[1] messageLength 300B
attr unit B
par NetworkSimulation2.host1.app[1] burstDuration 0s
attr unit s
par NetworkSimulation2.host1.app[1] sleepDuration 0s
attr unit s
par NetworkSimulation2.host1.app[1] sendInterval 1s
attr unit s
par NetworkSimulation2.host1.app[1] delayLimit 0s
attr unit s
par NetworkSimulation2.host1.app[1] timeToLive -1
par NetworkSimulation2.host1.app[1] dontFragment false
par NetworkSimulation2.host1.app[1] dscp -1
par NetworkSimulation2.host1.app[1] tos 1
par NetworkSimulation2.host1.app[1] stopOperationExtraTime -1s
attr unit s
par NetworkSimulation2.host1.app[1] stopOperationTimeout 2s
attr unit s
scalar NetworkSimulation2.host1.app[1] "Total sent" 570
scalar NetworkSimulation2.host1.app[1] "Total received" 0
scalar NetworkSimulation2.host1.app[1] "Total deleted" 0
scalar NetworkSimulation2.host1.app[1] outOfOrderPk:count 0
attr interpolationmode none
attr recordingmode count
attr source outOfOrderPk
attr title "packets received out of order, count"
scalar NetworkSimulation2.host1.app[1] outOfOrderPk:sum(packetBytes) 0
attr interpolationmode none
attr recordingmode sum(packetBytes)
attr source outOfOrderPk
attr title "packets received out of order, sum(packetBytes)"
scalar NetworkSimulation2.host1.app[1] packetReceived:count 0
attr interpolationmode none
attr recordingmode count
attr source packetReceived
attr title "packets received, count"
scalar NetworkSimulation2.host1.app[1] packetReceived:sum(packetBytes) 0
attr interpolationmode none
attr recordingmode sum(packetBytes)
attr source packetReceived
attr title "packets received, sum(packetBytes)"
statistic NetworkSimulation2.host1.app[1] endToEndDelay:histogram
field count 0
field mean nan
field stddev nan
field min nan
field max nan
field sum 0
field sqrsum 0
attr interpolationmode none
attr recordingmode histogram
attr source dataAge(packetReceived)
attr title delay
attr unit s
bin	-inf	0
bin	0	0
bin	1	0
scalar NetworkSimulation2.host1.app[1] packetSent:count 570
attr interpolationmode none
attr recordingmode count
attr source packetSent
attr title "packets sent, count"
scalar NetworkSimulation2.host1.app[1] packetSent:sum(packetBytes) 171000
attr interpolationmode none
attr recordingmode sum(packetBytes)
attr source packetSent
attr title "packets sent, sum(packetBytes)"
scalar NetworkSimulation2.host1.app[1] dropPk:count 0
attr interpolationmode none
attr recordingmode count
attr source packetDropped
attr title "packets dropped, count"
scalar NetworkSimulation2.host1.app[1] dropPk:sum(packetBytes) 0
attr interpolationmode none
attr recordingmode sum(packetBytes)
attr source packetDropped
attr title "packets dropped, sum(packetBytes)"
par NetworkSimulation2.host1.app[2] typename "\"inet.applications.udpapp.UdpBasicBurst\""
par NetworkSimulation2.host1.app[2] interfaceTableModule "\"NetworkSimulation2.host1.interfaceTable\""
par NetworkSimulation2.host1.app[2] destAddresses "\"host3\""
par NetworkSimulation2.host1.app[2] excludeLocalDestAddresses true
par NetworkSimulation2.host1.app[2] chooseDestAddrMode "\"once\""
attr enum once,perBurst,perSend
par NetworkSimulation2.host1.app[2] destAddrRNG 0
par NetworkSimulation2.host1.app[2] localPort 1002
par NetworkSimulation2.host1.app[2] destPort 1002
par NetworkSimulation2.host1.app[2] startTime 1s
attr unit s
par NetworkSimulation2.host1.app[2] stopTime -1s
attr unit s
par NetworkSimulation2.host1.app[2] messageLength 200B
attr unit B
par NetworkSimulation2.host1.app[2] burstDuration 0s
attr unit s
par NetworkSimulation2.host1.app[2] sleepDuration 0s
attr unit s
par NetworkSimulation2.host1.app[2] sendInterval 1s
attr unit s
par NetworkSimulation2.host1.app[2] delayLimit 0s
attr unit s
par NetworkSimulation2.host1.app[2] timeToLive -1
par NetworkSimulation2.host1.app[2] dontFragment false
par NetworkSimulation2.host1.app[2] dscp -1
par NetworkSimulation2.host1.app[2] tos 0
par NetworkSimulation2.host1.app[2] stopOperationExtraTime -1s
attr unit s
par NetworkSimulation2.host1.app[2] stopOperationTimeout 2s
attr unit s
scalar NetworkSimulation2.host1.app[2] "Total sent" 570
scalar NetworkSimulation2.host1.app[2] "Total received" 564
scalar NetworkSimulation2.host1.app[2] "Total deleted" 0
scalar NetworkSimulation2.host1.app[2] outOfOrderPk:count 0
attr interpolationmode none
attr recordingmode count
attr source outOfOrderPk
attr title "packets received out of order, count"
scalar NetworkSimulation2.host1.app[2] outOfOrderPk:sum(packetBytes) 0
attr interpolationmode none
attr recordingmode sum(packetBytes)
attr source outOfOrderPk
attr title "packets received out of order, sum(packetBytes)"
scalar NetworkSimulation2.host1.app[2] packetReceived:count 564
attr interpolationmode none
attr recordingmode count
attr source packetReceived
attr title "packets received, count"
scalar NetworkSimulation2.host1.app[2] packetReceived:sum(packetBytes) 112800
attr interpolationmode none
attr recordingmode sum(packetBytes)
attr source packetReceived
attr title "packets received, sum(packetBytes)"
statistic NetworkSimulation2.host1.app[2] endToEndDelay:histogram
field count 564
field mean 0.00012607127659574
field stddev 2.8709034234378e-06
field min 0.0001258
field max 0.0001564
field sum 0.0711042
field sqrsum 8.9688375599999e-06
attr interpolationmode none
attr recordingmode histogram
attr source dataAge(packetReceived)
attr title delay
attr unit s
bin	-inf	0
bin	0.000118	0
bin	0.000119	0
bin	0.00012	0
bin	0.000121	0
bin	0.000122	0
bin	0.000123	0
bin	0.000124	0
bin	0.000125	559
bin	0.000126	0
bin	0.000127	0
bin	0.000128	0
bin	0.000129	0
bin	0.00013	0
bin	0.000131	0
bin	0.000132	0
bin	0.000133	0
bin	0.000134	0
bin	0.000135	0
bin	0.000136	0
bin	0.000137	0
bin	0.000138	0
bin	0.000139	0
bin	0.00014	0
bin	0.000141	0
bin	0.000142	0
bin	0.000143	0
bin	0.000144	0
bin	0.000145	0
bin	0.000146	0
bin	0.000147	0
bin	0.000148	0
bin	0.000149	0
bin	0.00015	0
bin	0.000151	0
bin	0.000152	0
bin	0.000153	0
bin	0.000154	0
bin	0.000155	0
bin	0.000156	5
bin	0.000157	0
bin	0.000158	0
bin	0.000159	0
bin	0.00016	0
bin	0.000161	0
bin	0.000162	0
bin	0.000163	0
bin	0.000164	0
bin	0.000165	0
scalar NetworkSimulation2.host1.app[2] packetSent:count 570
attr interpolationmode none
attr recordingmode count
attr source packetSent
attr title "packets sent, count"
scalar NetworkSimulation2.host1.app[2] packetSent:sum(packetBytes) 114000
attr interpolationmode none
attr recordingmode sum(packetBytes)
attr source packetSent
attr title "packets sent, sum(packetBytes)"
scalar NetworkSimulation2.host1.app[2] dropPk:count 0
attr interpolationmode none
attr recordingmode count
attr source packetDropped
attr title "packets dropped, count"
scalar NetworkSimulation2.host1.app[2] dropPk:sum(packetBytes) 0
attr interpolationmode none
attr recordingmode sum(packetBytes)
attr source packetDropped
attr title "packets dropped, sum(packetBytes)"
par NetworkSimulation2.host1.app[3] typename "\"inet.applications.udpapp.UdpBasicBurst\""
par NetworkSimulation2.host1.app[3] interfaceTableModule "\"NetworkSimulation2.host1.interfaceTable\""
par NetworkSimulation2.host1.app[3] destAddresses "\"host4\""
par NetworkSimulation2.host1.app[3] excludeLocalDestAddresses true
par NetworkSimulation2.host1.app[3] chooseDestAddrMode "\"once\""
attr enum once,perBurst,perSend
par NetworkSimulation2.host1.app[3] destAddrRNG 0
par NetworkSimulation2.host1.app[3] localPort 1003
par NetworkSimulation2.host1.app[3] destPort 1003
par NetworkSimulation2.host1.app[3] startTime 1s
attr unit s
par NetworkSimulation2.host1.app[3] stopTime -1s
attr unit s
par NetworkSimulation2.host1.app[3] messageLength 300B
[...]
attr interpolationmode none
attr recordingmode sum(packetBytes)
attr source packetSentToLower
attr title "packets transmitted, sum(packetBytes)"
scalar NetworkSimulation2.router7.ppp[1].ppp rcvdPkFromHl:count 3446
attr interpolationmode none
attr recordingmode count
attr source packetReceivedFromUpper
attr title "packets received from higher layer, count"
scalar NetworkSimulation2.router7.ppp[1].ppp rcvdPkFromHl:sum(packetBytes) 1057480
attr interpolationmode none
attr recordingmode sum(packetBytes)
attr source packetReceivedFromUpper
attr title "packets received from higher layer, sum(packetBytes)"
scalar NetworkSimulation2.router7.ppp[1].ppp passedUpPk:count 3954
attr interpolationmode none
attr recordingmode count
attr source packetSentToUpper
attr title "packets passed to higher layer, count"
scalar NetworkSimulation2.router7.ppp[1].ppp passedUpPk:sum(packetBytes) 490464
attr interpolationmode none
attr recordingmode sum(packetBytes)
attr source packetSentToUpper
attr title "packets passed to higher layer, sum(packetBytes)"
scalar NetworkSimulation2.router7.ppp[1].ppp packetDropIncorrectlyReceived:count 0
attr interpolationmode none
attr recordingmode count
attr source packetDropReasonIsIncorrectlyReceived(packetDropped)
attr title "packet drop: incorrectly received, count"
scalar NetworkSimulation2.router7.ppp[1].ppp packetDropIncorrectlyReceived:sum(packetBytes) 0
attr interpolationmode none
attr recordingmode sum(packetBytes)
attr source packetDropReasonIsIncorrectlyReceived(packetDropped)
attr title "packet drop: incorrectly received, sum(packetBytes)"
scalar NetworkSimulation2.router7.ppp[1].ppp packetDropInterfaceDown:count 0
attr interpolationmode none
attr recordingmode count
attr source packetDropReasonIsInterfaceDown(packetDropped)
attr title "packet drop: interface down, count"
scalar NetworkSimulation2.router7.ppp[1].ppp packetDropInterfaceDown:sum(packetBytes) 0
attr interpolationmode none
attr recordingmode sum(packetBytes)
attr source packetDropReasonIsInterfaceDown(packetDropped)
attr title "packet drop: interface down, sum(packetBytes)"
scalar NetworkSimulation2.router7.ppp[1].ppp rxPkOk:count 3954
attr interpolationmode none
attr recordingmode count
attr source rxPkOk
attr title "packets received OK, count"
scalar NetworkSimulation2.router7.ppp[1].ppp rxPkOk:sum(packetBytes) 518142
attr interpolationmode none
attr recordingmode sum(packetBytes)
attr source rxPkOk
attr title "packets received OK, sum(packetBytes)"
scalar NetworkSimulation2.router7.ppp[1].ppp transmissionState:timeavg 7.5901880834811e-05
attr interpolationmode sample-hold
attr recordingmode timeavg
attr source transmissionStateChanged
attr title "tx state, timeavg"
par NetworkSimulation2.router7.ppp[1] typename "\"inet.linklayer.ppp.PppInterface\""
par NetworkSimulation2.router7.ppp[1] displayStringTextFormat "\"%a (%i)\\n%m\""
par NetworkSimulation2.router7.ppp[1] recordPcap false
par NetworkSimulation2.router7.ppp[1] numPcapRecorders 0
par NetworkSimulation2.router7.ppp[1] interfaceTableModule "\"NetworkSimulation2.router7.interfaceTable\""
scalar NetworkSimulation2.router7.ppp[1] packetDropInterfaceDown:count 0
attr interpolationmode none
attr recordingmode count
attr source packetDropReasonIsInterfaceDown(packetDropped)
attr title "packet drops: interface down, count"
scalar NetworkSimulation2.router7.ppp[1] packetDropInterfaceDown:sum(packetBytes) 0
attr interpolationmode none
attr recordingmode sum(packetBytes)
attr source packetDropReasonIsInterfaceDown(packetDropped)
attr title "packet drops: interface down, sum(packetBytes)"
scalar NetworkSimulation2.router7.ppp[1] packetDropNoCarrier:count 0
attr interpolationmode none
attr recordingmode count
attr source packetDropReasonIsNoCarrier(packetDropped)
attr title "packet drops: no carrier, count"
scalar NetworkSimulation2.router7.ppp[1] packetDropNoCarrier:sum(packetBytes) 0
attr interpolationmode none
attr recordingmode sum(packetBytes)
attr source packetDropReasonIsNoCarrier(packetDropped)
attr title "packet drops: no carrier, sum(packetBytes)"
par NetworkSimulation2.router7.ipv4.transportIn.channel typename "\"ned.IdealChannel\""
par NetworkSimulation2.router7.ipv4.up.out[0].channel typename "\"ned.IdealChannel\""
par NetworkSimulation2.router7.ipv4.lp.out[2].channel typename "\"ned.IdealChannel\""
par NetworkSimulation2.router7.ipv4.ifIn.channel typename "\"ned.IdealChannel\""
par NetworkSimulation2.router7.ipv4.configurator typename "\"inet.networklayer.configurator.ipv4.Ipv4NodeConfigurator\""
par NetworkSimulation2.router7.ipv4.configurator interfaceTableModule "\"NetworkSimulation2.router7.interfaceTable\""
par NetworkSimulation2.router7.ipv4.configurator routingTableModule "\"NetworkSimulation2.router7.ipv4.routingTable\""
par NetworkSimulation2.router7.ipv4.configurator networkConfiguratorModule "\"configurator\""
par NetworkSimulation2.router7.ipv4.configurator configureRoutingTable true
par NetworkSimulation2.router7.ipv4.routingTable typename "\"inet.networklayer.ipv4.Ipv4RoutingTable\""
par NetworkSimulation2.router7.ipv4.routingTable interfaceTableModule "\"NetworkSimulation2.router7.interfaceTable\""
par NetworkSimulation2.router7.ipv4.routingTable routerId "\"auto\""
par NetworkSimulation2.router7.ipv4.routingTable netmaskRoutes "\"*\""
par NetworkSimulation2.router7.ipv4.routingTable forwarding true
par NetworkSimulation2.router7.ipv4.routingTable multicastForwarding false
par NetworkSimulation2.router7.ipv4.routingTable useAdminDist false
par NetworkSimulation2.router7.ipv4.routingTable routingFile "\"\""
par NetworkSimulation2.router7.ipv4.natTable typename "\"inet.networklayer.ipv4.Ipv4NatTable\""
par NetworkSimulation2.router7.ipv4.natTable networkProtocolModule "\"^.ip\""
par NetworkSimulation2.router7.ipv4.natTable config "<config/> at content:1"
par NetworkSimulation2.router7.ipv4.up typename "\"inet.common.MessageDispatcher\""
par NetworkSimulation2.router7.ipv4.up displayStringTextFormat "\"processed %p pk (%l)\""
par NetworkSimulation2.router7.ipv4.up forwardServiceRegistration true
par NetworkSimulation2.router7.ipv4.up forwardProtocolRegistration true
par NetworkSimulation2.router7.ipv4.igmp typename "\"inet.networklayer.ipv4.Igmpv2\""
par NetworkSimulation2.router7.ipv4.igmp interfaceTableModule "\"NetworkSimulation2.router7.interfaceTable\""
par NetworkSimulation2.router7.ipv4.igmp routingTableModule "\"NetworkSimulation2.router7.ipv4.routingTable\""
par NetworkSimulation2.router7.ipv4.igmp crcMode "\"declared\""
attr enum declared,computed
par NetworkSimulation2.router7.ipv4.igmp enabled true
par NetworkSimulation2.router7.ipv4.igmp robustnessVariable 2
par NetworkSimulation2.router7.ipv4.igmp queryInterval 125s
attr unit s
par NetworkSimulation2.router7.ipv4.igmp queryResponseInterval 10s
attr unit s
par NetworkSimulation2.router7.ipv4.igmp groupMembershipInterval 260s
attr unit s
par NetworkSimulation2.router7.ipv4.igmp otherQuerierPresentInterval 255s
attr unit s
par NetworkSimulation2.router7.ipv4.igmp startupQueryInterval 31.25s
attr unit s
par NetworkSimulation2.router7.ipv4.igmp startupQueryCount 2
par NetworkSimulation2.router7.ipv4.igmp lastMemberQueryInterval 1s
attr unit s
par NetworkSimulation2.router7.ipv4.igmp lastMemberQueryCount 2
par NetworkSimulation2.router7.ipv4.igmp unsolicitedReportInterval 10s
attr unit s
par NetworkSimulation2.router7.ipv4.icmp typename "\"inet.networklayer.ipv4.Icmp\""
par NetworkSimulation2.router7.ipv4.icmp interfaceTableModule "\"NetworkSimulation2.router7.interfaceTable\""
par NetworkSimulation2.router7.ipv4.icmp routingTableModule "\"NetworkSimulation2.router7.ipv4.routingTable\""
par NetworkSimulation2.router7.ipv4.icmp crcMode "\"declared\""
attr enum declared,computed
attr mutable ""
par NetworkSimulation2.router7.ipv4.icmp quoteLength 8B
attr mutable ""
attr unit B
par NetworkSimulation2.router7.ipv4.mp typename "\"inet.common.MessageDispatcher\""
par NetworkSimulation2.router7.ipv4.mp displayStringTextFormat "\"processed %p pk (%l)\""
par NetworkSimulation2.router7.ipv4.mp forwardServiceRegistration true
par NetworkSimulation2.router7.ipv4.mp forwardProtocolRegistration true
par NetworkSimulation2.router7.ipv4.ip typename "\"inet.networklayer.ipv4.Ipv4\""
par NetworkSimulation2.router7.ipv4.ip interfaceTableModule "\"NetworkSimulation2.router7.interfaceTable\""
par NetworkSimulation2.router7.ipv4.ip routingTableModule "\"NetworkSimulation2.router7.ipv4.routingTable\""
par NetworkSimulation2.router7.ipv4.ip arpModule "\"NetworkSimulation2.router7.ipv4.arp\""
par NetworkSimulation2.router7.ipv4.ip icmpModule "\"NetworkSimulation2.router7.ipv4.icmp\""
par NetworkSimulation2.router7.ipv4.ip crcMode "\"declared\""
attr enum declared,computed
par NetworkSimulation2.router7.ipv4.ip timeToLive 32
par NetworkSimulation2.router7.ipv4.ip multicastTimeToLive 32
par NetworkSimulation2.router7.ipv4.ip fragmentTimeout 60s
attr unit s
par NetworkSimulation2.router7.ipv4.ip limitedBroadcast false
par NetworkSimulation2.router7.ipv4.ip directBroadcastInterfaces "\"\""
scalar NetworkSimulation2.router7.ipv4.ip packetDropAddressResolutionFailed:count 0
attr interpolationmode none
attr recordingmode count
attr source packetDropReasonIsAddressResolutionFailed(packetDropped)
attr title "packet drop: address resolution failed, count"
scalar NetworkSimulation2.router7.ipv4.ip packetDropAddressResolutionFailed:sum(packetBytes) 0
attr interpolationmode none
attr recordingmode sum(packetBytes)
attr source packetDropReasonIsAddressResolutionFailed(packetDropped)
attr title "packet drop: address resolution failed, sum(packetBytes)"
scalar NetworkSimulation2.router7.ipv4.ip packetDropHopLimitReached:count 0
attr interpolationmode none
attr recordingmode count
attr source packetDropReasonIsHopLimitReached(packetDropped)
attr title "packet drop: hop limit reached, count"
scalar NetworkSimulation2.router7.ipv4.ip packetDropHopLimitReached:sum(packetBytes) 0
attr interpolationmode none
attr recordingmode sum(packetBytes)
attr source packetDropReasonIsHopLimitReached(packetDropped)
attr title "packet drop: hop limit reached, sum(packetBytes)"
scalar NetworkSimulation2.router7.ipv4.ip packetDropForwardingDisabled:count 0
attr interpolationmode none
attr recordingmode count
attr source packetDropReasonIsForwardingDisabled(packetDropped)
attr title "packet drop: forwarding disabled, count"
scalar NetworkSimulation2.router7.ipv4.ip packetDropForwardingDisabled:sum(packetBytes) 0
attr interpolationmode none
attr recordingmode sum(packetBytes)
attr source packetDropReasonIsForwardingDisabled(packetDropped)
attr title "packet drop: forwarding disabled, sum(packetBytes)"
scalar NetworkSimulation2.router7.ipv4.ip packetDropNoInterfaceFound:count 0
attr interpolationmode none
attr recordingmode count
attr source packetDropReasonIsNoInterfaceFound(packetDropped)
attr title "packet drop: no interface found, count"
scalar NetworkSimulation2.router7.ipv4.ip packetDropNoInterfaceFound:sum(packetBytes) 0
attr interpolationmode none
attr recordingmode sum(packetBytes)
attr source packetDropReasonIsNoInterfaceFound(packetDropped)
attr title "packet drop: no interface found, sum(packetBytes)"
scalar NetworkSimulation2.router7.ipv4.ip packetDropNoRouteFound:count 5
attr interpolationmode none
attr recordingmode count
attr source packetDropReasonIsNoRouteFound(packetDropped)
attr title "packet drop: no route found, count"
scalar NetworkSimulation2.router7.ipv4.ip packetDropNoRouteFound:sum(packetBytes) 2640
attr interpolationmode none
attr recordingmode sum(packetBytes)
attr source packetDropReasonIsNoRouteFound(packetDropped)
attr title "packet drop: no route found, sum(packetBytes)"
scalar NetworkSimulation2.router7.ipv4.ip packetDropUndefined:count 0
attr interpolationmode none
attr recordingmode count
attr source packetDropReasonIsUndefined(packetDropped)
attr title "packet drop: undefined, count"
scalar NetworkSimulation2.router7.ipv4.ip packetDropUndefined:sum(packetBytes) 0
attr interpolationmode none
attr recordingmode sum(packetBytes)
attr source packetDropReasonIsUndefined(packetDropped)
attr title "packet drop: undefined, sum(packetBytes)"
par NetworkSimulation2.router7.ipv4.arp typename "\"inet.networklayer.arp.ipv4.Arp\""
par NetworkSimulation2.router7.ipv4.arp interfaceTableModule "\"NetworkSimulation2.router7.interfaceTable\""
par NetworkSimulation2.router7.ipv4.arp routingTableModule "\"NetworkSimulation2.router7.ipv4.routingTable\""
par NetworkSimulation2.router7.ipv4.arp retryTimeout 1s
attr unit s
par NetworkSimulation2.router7.ipv4.arp retryCount 3
par NetworkSimulation2.router7.ipv4.arp cacheTimeout 120s
attr unit s
par NetworkSimulation2.router7.ipv4.arp proxyArpInterfaces "\"*\""
scalar NetworkSimulation2.router7.ipv4.arp arpReplySent:count 0
attr recordingmode count
attr source arpReplySent
attr title "ARP replies sent, count"
scalar NetworkSimulation2.router7.ipv4.arp arpReplySent:sum(packetBytes) 0
attr recordingmode sum(packetBytes)
attr source arpReplySent
attr title "ARP replies sent, sum(packetBytes)"
scalar NetworkSimulation2.router7.ipv4.arp arpRequestSent:count 0
attr recordingmode count
attr source arpRequestSent
attr title "ARP request sent, count"
scalar NetworkSimulation2.router7.ipv4.arp arpRequestSent:sum(packetBytes) 0
attr recordingmode sum(packetBytes)
attr source arpRequestSent
attr title "ARP request sent, sum(packetBytes)"
scalar NetworkSimulation2.router7.ipv4.arp arpResolutionFailed:count 0
attr recordingmode count
attr title "ARP failed resolutions, count"
scalar NetworkSimulation2.router7.ipv4.arp arpResolutionCompleted:count 0
attr recordingmode count
attr title "ARP completed resolutions, count"
scalar NetworkSimulation2.router7.ipv4.arp arpResolutionInitiated:count 0
attr recordingmode count
attr title "ARP initiated resolutions, count"
par NetworkSimulation2.router7.ipv4.lp typename "\"inet.common.MessageDispatcher\""
par NetworkSimulation2.router7.ipv4.lp displayStringTextFormat "\"processed %p pk (%l)\""
par NetworkSimulation2.router7.ipv4.lp forwardServiceRegistration true
par NetworkSimulation2.router7.ipv4.lp forwardProtocolRegistration true
par NetworkSimulation2.router7.ipv4 typename "\"inet.networklayer.ipv4.Ipv4NetworkLayer\""
par NetworkSimulation2.router7.ipv4 forwarding true
par NetworkSimulation2.router7.ipv4 multicastForwarding false
par NetworkSimulation2.router7.ipv4 interfaceTableModule "\"NetworkSimulation2.router7.interfaceTable\""
par NetworkSimulation2.router7.ipv4 displayStringTextFormat "\"%i\""
par NetworkSimulation2.router7.nl typename "\"inet.common.MessageDispatcher\""
par NetworkSimulation2.router7.nl displayStringTextFormat "\"processed %p pk (%l)\""
par NetworkSimulation2.router7.nl forwardServiceRegistration true
par NetworkSimulation2.router7.nl forwardProtocolRegistration true
par NetworkSimulation2.router7.tn typename "\"inet.common.MessageDispatcher\""
par NetworkSimulation2.router7.tn displayStringTextFormat "\"processed %p pk (%l)\""
par NetworkSimulation2.router7.tn forwardServiceRegistration true
par NetworkSimulation2.router7.tn forwardProtocolRegistration true
par NetworkSimulation2.router7.at typename "\"inet.common.MessageDispatcher\""
par NetworkSimulation2.router7.at displayStringTextFormat "\"processed %p pk (%l)\""
par NetworkSimulation2.router7.at forwardServiceRegistration true
par NetworkSimulation2.router7.at forwardProtocolRegistration true
par NetworkSimulation2.router7.ospf typename "\"inet.routing.ospfv2.Ospfv2\""
par NetworkSimulation2.router7.ospf interfaceTableModule "\"NetworkSimulation2.router7.interfaceTable\""
par NetworkSimulation2.router7.ospf routingTableModule "\"^.ipv4.routingTable\""
par NetworkSimulation2.router7.ospf crcMode "\"declared\""
attr enum declared,computed
par NetworkSimulation2.router7.ospf startupTime 0s
attr unit s
par NetworkSimulation2.router7.ospf ospfConfig "<OSPFASConfig xmlns:xsi=\"http://www.w3.org/2001/XMLSchema-instance\" xsi:schemaLocation=\"OSPF.xsd\">...</OSPFASConfig> at C:/Omnet+/omnetpp-6.0/samples/mohima/NetworkSimulation2/simulations/\\config.xml:2"
par NetworkSimulation2.router7.ospf routerPriority 1
par NetworkSimulation2.router7.ospf areaID "\"0.0.0.0\""
par NetworkSimulation2.router7.ospf RFC1583Compatible false
par NetworkSimulation2.router7.ospf DistributeDefaultRoute false
par NetworkSimulation2.router7.ospf helloInterval 10s
attr unit s
par NetworkSimulation2.router7.ospf pollInterval 120s
attr unit s
par NetworkSimulation2.router7.ospf routerDeadInterval 40s
attr unit s
par NetworkSimulation2.router7.ospf retransmissionInterval 5s
attr unit s
par NetworkSimulation2.router7.ospf interfaceTransmissionDelay 1s
attr unit s
par NetworkSimulation2.router7.ospf interfaceMode "\"Active\""
attr enum Active,Passive,NoOSPF
par NetworkSimulation2.router7.ospf referenceBandwidth 100000000bps
attr unit bps
par NetworkSimulation2.router7.ospf interfaceOutputCost 0
par NetworkSimulation2.router7.ospf externalInterfaceOutputCost 1
par NetworkSimulation2.router7.ospf externalInterfaceOutputType "\"Type2\""
par NetworkSimulation2.router7.ospf forwardingAddress "\"0.0.0.0\""
par NetworkSimulation2.router7.ospf linkCost 1
par NetworkSimulation2.router7.ospf authenticationType "\"NullType\""
attr enum SimplePasswordType,CrytographicType,NullType
par NetworkSimulation2.router7.ospf authenticationKey "\"0x00\""
par NetworkSimulation2.router7 typename "\"inet.node.ospfv2.OspfRouter\""
par NetworkSimulation2.router7 hasStatus true
par NetworkSimulation2.router7 osgModel "\"\""
par NetworkSimulation2.router7 osgModelColor "\"\""
par NetworkSimulation2.router7 canvasImage "\"\""
par NetworkSimulation2.router7 canvasImageColor "\"\""
par NetworkSimulation2.router7 recordPcap false
par NetworkSimulation2.router7 numPcapRecorders 0
par NetworkSimulation2.router7 numLoInterfaces 1
par NetworkSimulation2.router7 numWlanInterfaces 0
par NetworkSimulation2.router7 numEthInterfaces 0
par NetworkSimulation2.router7 numPppInterfaces 0
par NetworkSimulation2.router7 numTunInterfaces 0
par NetworkSimulation2.router7 numVirtInterfaces 0
par NetworkSimulation2.router7 fcsMode "\"declared\""
attr enum declared,computed
par NetworkSimulation2.router7 hasIpv4 true
par NetworkSimulation2.router7 hasIpv6 false
par NetworkSimulation2.router7 hasGn false
par NetworkSimulation2.router7 forwarding true
par NetworkSimulation2.router7 multicastForwarding false
par NetworkSimulation2.router7 hasUdp false
par NetworkSimulation2.router7 hasTcp false
par NetworkSimulation2.router7 hasSctp false
par NetworkSimulation2.router7 numApps 0
par NetworkSimulation2.router7 hasEigrp false
par NetworkSimulation2.router7 hasOspf true
par NetworkSimulation2.router7 hasRip false
par NetworkSimulation2.router7 hasBgp false
par NetworkSimulation2.router7 hasPim false
par NetworkSimulation2.router7 hasDhcp false
par NetworkSimulation2.configurator typename "\"inet.networklayer.configurator.ipv4.Ipv4NetworkConfigurator\""
par NetworkSimulation2.configurator minLinkWeight 0.001
par NetworkSimulation2.configurator configureIsolatedNetworksSeparatly false
par NetworkSimulation2.configurator config "<config>...</config> at content:1"
par NetworkSimulation2.configurator assignAddresses true
par NetworkSimulation2.configurator assignUniqueAddresses true
par NetworkSimulation2.configurator assignDisjunctSubnetAddresses true
par NetworkSimulation2.configurator addStaticRoutes false
par NetworkSimulation2.configurator addDefaultRoutes false
par NetworkSimulation2.configurator addSubnetRoutes true
par NetworkSimulation2.configurator addDirectRoutes true
par NetworkSimulation2.configurator optimizeRoutes true
par NetworkSimulation2.configurator dumpTopology false
par NetworkSimulation2.configurator dumpLinks false
par NetworkSimulation2.configurator dumpAddresses false
par NetworkSimulation2.configurator dumpRoutes false
par NetworkSimulation2.configurator dumpConfig "\"\""
par NetworkSimulation2 typename "\"networksimulation2.simulations.NetworkSimulation2\""

