file 59951656 1714315692                                        
version 3
run General-0-20240428-10:47:56-26856
attr configname General
attr datetime 20240428-10:47:56
attr datetimef 20240428-104756
attr experiment General
attr inifile omnetpp.ini
attr iterationvars ""
attr iterationvarsd ""
attr iterationvarsf ""
attr measurement ""
attr network NetworkSimulation2
attr processid 26856
attr repetition 0
attr replication #0
attr resultdir results
attr runnumber 0
attr seedset 0
config image-path ../../inet4.5/images
config network NetworkSimulation2
config **.ospf.ospfConfig "xmldoc(\"config.xml\")"
config sim-time-limit 3600s
config **.host*.app[*].typename UdpBasicBurst
config **.host*.app[*].chooseDestAddrMode "\"once\""
config **.fifo[*].queueLength.result-recording-modes +vector
config **.router*.ppp[*].queue.typename inet.examples.inet.netperfmeter.REDQueue
config **.queue.numQueues 2
config **.router*.ppp[*].queue.packetCapacity 10
config **.router*.ppp[*].PacketBuffer 16000
config **.host*.app[0].destPort 1000
config **.host*.app[1].destPort 1001
config **.host*.app[2].destPort 1002
config **.host*.app[3].destPort 1003
config **.host*.app[4].destPort 1004
config **.host*.app[5].destPort 1005
config **.host*.app[6].destPort 1006
config **.host*.app[0].localPort 1000
config **.host*.app[1].localPort 1001
config **.host*.app[2].localPort 1002
config **.host*.app[3].localPort 1003
config **.host*.app[4].localPort 1004
config **.host*.app[5].localPort 1005
config **.host*.app[6].localPort 1006
config *.host4.numApps 7
config *.host4.app[0].typename UdpBasicBurst
config *.host4.app[0].destAddresses "\"host2\""
config *.host4.app[0].datarate 10210
config *.host4.app[0].messageLength 1000Byte
config *.host4.app[0].tos 0
config *.host4.app[0].sendInterval 1s
config *.host4.app[0].sleepDuration 0s
config *.host4.app[0].burstDuration 0s
config *.host4.app[1].typename UdpBasicBurst
config *.host4.app[1].destAddresses "\"host3\""
config *.host4.app[1].datarate 19687
config *.host4.app[1].messageLength 300Byte
config *.host4.app[1].tos 0
config *.host4.app[1].sendInterval 1s
config *.host4.app[1].sleepDuration 0s
config *.host4.app[1].burstDuration 0s
config *.host4.app[2].typename UdpBasicBurst
config *.host4.app[2].destAddresses "\"host1\""
config *.host4.app[2].datarate 6251
config *.host4.app[2].messageLength 200Byte
config *.host4.app[2].tos 1
config *.host4.app[2].sendInterval 1s
config *.host4.app[2].sleepDuration 0s
config *.host4.app[2].burstDuration 0s
config *.host4.app[3].typename UdpBasicBurst
config *.host4.app[3].destAddresses "\"host7\""
config *.host4.app[3].datarate 10304
config *.host4.app[3].messageLength 500Byte
config *.host4.app[3].tos 1
config *.host4.app[3].sendInterval 1s
config *.host4.app[3].sleepDuration 0s
config *.host4.app[3].burstDuration 0s
config *.host4.app[4].typename UdpBasicBurst
config *.host4.app[4].destAddresses "\"host6\""
config *.host4.app[4].datarate 11462
config *.host4.app[4].messageLength 1000Byte
config *.host4.app[4].tos 0
config *.host4.app[4].sendInterval 1s
config *.host4.app[4].sleepDuration 0s
config *.host4.app[4].burstDuration 0s
config *.host4.app[5].typename UdpBasicBurst
config *.host4.app[5].destAddresses "\"host5\""
config *.host4.app[5].datarate 8856
config *.host4.app[5].messageLength 300Byte
config *.host4.app[5].tos 2
config *.host4.app[5].sendInterval 1s
config *.host4.app[5].sleepDuration 0s
config *.host4.app[5].burstDuration 0s
config *.host4.app[6].typename UdpBasicBurst
config *.host4.app[6].destAddresses "\"host4\""
config *.host4.app[6].datarate 10662
config *.host4.app[6].messageLength 500Byte
config *.host4.app[6].tos 0
config *.host4.app[6].sendInterval 1s
config *.host4.app[6].sleepDuration 0s
config *.host4.app[6].burstDuration 0s
config *.host1.numApps 7
config *.host1.app[0].typename UdpBasicBurst
config *.host1.app[0].destAddresses "\"host1\""
config *.host1.app[0].datarate 19529
config *.host1.app[0].messageLength 500Byte
config *.host1.app[0].tos 0
config *.host1.app[0].sendInterval 1s
config *.host1.app[0].sleepDuration 0s
config *.host1.app[0].burstDuration 0s
config *.host1.app[1].typename UdpBasicBurst
config *.host1.app[1].destAddresses "\"host2\""
config *.host1.app[1].datarate 8940
config *.host1.app[1].messageLength 300Byte
config *.host1.app[1].tos 1
config *.host1.app[1].sendInterval 1s
config *.host1.app[1].sleepDuration 0s
config *.host1.app[1].burstDuration 0s
config *.host1.app[2].typename UdpBasicBurst
config *.host1.app[2].destAddresses "\"host3\""
config *.host1.app[2].datarate 19367
config *.host1.app[2].messageLength 200Byte
config *.host1.app[2].tos 0
config *.host1.app[2].sendInterval 1s
config *.host1.app[2].sleepDuration 0s
config *.host1.app[2].burstDuration 0s
config *.host1.app[3].typename UdpBasicBurst
config *.host1.app[3].destAddresses "\"host4\""
config *.host1.app[3].datarate 14450
config *.host1.app[3].messageLength 300Byte
config *.host1.app[3].tos 0
config *.host1.app[3].sendInterval 1s
config *.host1.app[3].sleepDuration 0s
config *.host1.app[3].burstDuration 0s
config *.host1.app[4].typename UdpBasicBurst
config *.host1.app[4].destAddresses "\"host5\""
config *.host1.app[4].datarate 17750
config *.host1.app[4].messageLength 500Byte
config *.host1.app[4].tos 0
config *.host1.app[4].sendInterval 1s
config *.host1.app[4].sleepDuration 0s
config *.host1.app[4].burstDuration 0s
config *.host1.app[5].typename UdpBasicBurst
config *.host1.app[5].destAddresses "\"host6\""
config *.host1.app[5].datarate 14750
config *.host1.app[5].messageLength 1000Byte
config *.host1.app[5].tos 1
config *.host1.app[5].sendInterval 1s
config *.host1.app[5].sleepDuration 0s
config *.host1.app[5].burstDuration 0s
config *.host1.app[6].typename UdpBasicBurst
config *.host1.app[6].destAddresses "\"host7\""
config *.host1.app[6].datarate 11650
config *.host1.app[6].messageLength 200Byte
config *.host1.app[6].tos 2
config *.host1.app[6].sendInterval 1s
config *.host1.app[6].sleepDuration 0s
config *.host1.app[6].burstDuration 0s
config *.host2.numApps 7
config *.host2.app[0].typename UdpBasicBurst
config *.host2.app[0].destAddresses "\"host1\""
config *.host2.app[0].datarate 12876
config *.host2.app[0].messageLength 300Byte
config *.host2.app[0].tos 0
config *.host2.app[0].sendInterval 1s
config *.host2.app[0].sleepDuration 0s
config *.host2.app[0].burstDuration 0s
config *.host2.app[1].typename UdpBasicBurst
config *.host2.app[1].destAddresses "\"host2\""
config *.host2.app[1].datarate 12786
config *.host2.app[1].messageLength 500Byte
config *.host2.app[1].tos 0
config *.host2.app[1].sendInterval 1s
config *.host2.app[1].sleepDuration 0s
config *.host2.app[1].burstDuration 0s
config *.host2.app[2].typename UdpBasicBurst
config *.host2.app[2].destAddresses "\"host3\""
config *.host2.app[2].datarate 5674
config *.host2.app[2].messageLength 100Byte
config *.host2.app[2].tos 0
config *.host2.app[2].sendInterval 1s
config *.host2.app[2].sleepDuration 0s
config *.host2.app[2].burstDuration 0s
config *.host2.app[3].typename UdpBasicBurst
config *.host2.app[3].destAddresses "\"host4\""
config *.host2.app[3].datarate 6785
config *.host2.app[3].messageLength 300Byte
config *.host2.app[3].tos 0
config *.host2.app[3].sendInterval 1s
config *.host2.app[3].sleepDuration 0s
config *.host2.app[3].burstDuration 0s
config *.host2.app[4].typename UdpBasicBurst
config *.host2.app[4].destAddresses "\"host5\""
config *.host2.app[4].datarate 34565
config *.host2.app[4].messageLength 500Byte
config *.host2.app[4].tos 0
config *.host2.app[4].sendInterval 1s
config *.host2.app[4].sleepDuration 0s
config *.host2.app[4].burstDuration 0s
config *.host2.app[5].typename UdpBasicBurst
config *.host2.app[5].destAddresses "\"host6\""
config *.host2.app[5].datarate 16543
config *.host2.app[5].messageLength 500Byte
config *.host2.app[5].tos 0
config *.host2.app[5].sendInterval 1s
config *.host2.app[5].sleepDuration 0s
config *.host2.app[5].burstDuration 0s
config *.host2.app[6].typename UdpBasicBurst
config *.host2.app[6].destAddresses "\"host7\""
config *.host2.app[6].datarate 23511
config *.host2.app[6].messageLength 300Byte
config *.host2.app[6].tos 1
config *.host2.app[6].sendInterval 1s
config *.host2.app[6].sleepDuration 0s
config *.host2.app[6].burstDuration 0s
config *.host3.numApps 7
config *.host3.app[0].typename UdpBasicBurst
config *.host3.app[0].destAddresses "\"host1\""
config *.host3.app[0].datarate 27654
config *.host3.app[0].messageLength 400Byte
config *.host3.app[0].tos 2
config *.host3.app[0].sendInterval 1s
config *.host3.app[0].sleepDuration 0s
config *.host3.app[0].burstDuration 0s
config *.host3.app[1].typename UdpBasicBurst
config *.host3.app[1].destAddresses "\"host2\""
config *.host3.app[1].datarate 16542
config *.host3.app[1].messageLength 500Byte
config *.host3.app[1].tos 0
config *.host3.app[1].sendInterval 1s
config *.host3.app[1].sleepDuration 0s
config *.host3.app[1].burstDuration 0s
config *.host3.app[2].typename UdpBasicBurst
config *.host3.app[2].destAddresses "\"host3\""
config *.host3.app[2].datarate 11987
config *.host3.app[2].messageLength 300Byte
config *.host3.app[2].tos 0
config *.host3.app[2].sendInterval 1s
config *.host3.app[2].sleepDuration 0s
config *.host3.app[2].burstDuration 0s
config *.host3.app[3].typename UdpBasicBurst
config *.host3.app[3].destAddresses "\"host4\""
config *.host3.app[3].datarate 32165
config *.host3.app[3].messageLength 500Byte
config *.host3.app[3].tos 1
config *.host3.app[3].sendInterval 1s
config *.host3.app[3].sleepDuration 0s
config *.host3.app[3].burstDuration 0s
config *.host3.app[4].typename UdpBasicBurst
config *.host3.app[4].destAddresses "\"host5\""
config *.host3.app[4].datarate 127654
config *.host3.app[4].messageLength 500Byte
config *.host3.app[4].tos 2
config *.host3.app[4].sendInterval 1s
config *.host3.app[4].sleepDuration 0s
config *.host3.app[4].burstDuration 0s
config *.host3.app[5].typename UdpBasicBurst
config *.host3.app[5].destAddresses "\"host6\""
config *.host3.app[5].datarate 98765
config *.host3.app[5].messageLength 300Byte
config *.host3.app[5].tos 0
config *.host3.app[5].sendInterval 1s
config *.host3.app[5].sleepDuration 0s
config *.host3.app[5].burstDuration 0s
config *.host3.app[6].typename UdpBasicBurst
config *.host3.app[6].destAddresses "\"host7\""
config *.host3.app[6].datarate 27654
config *.host3.app[6].messageLength 200Byte
config *.host3.app[6].tos 0
config *.host3.app[6].sendInterval 1s
config *.host3.app[6].sleepDuration 0s
config *.host3.app[6].burstDuration 0s
config *.host5.numApps 7
config *.host5.app[0].typename UdpBasicBurst
config *.host5.app[0].destAddresses "\"host1\""
config *.host5.app[0].datarate 29876
config *.host5.app[0].messageLength 300Byte
config *.host5.app[0].tos 0
config *.host5.app[0].sendInterval 1s
config *.host5.app[0].sleepDuration 0s
config *.host5.app[0].burstDuration 0s
config *.host5.app[1].typename UdpBasicBurst
config *.host5.app[1].destAddresses "\"host2\""
config *.host5.app[1].datarate 37635
config *.host5.app[1].messageLength 500Byte
config *.host5.app[1].tos 0
config *.host5.app[1].sendInterval 1s
config *.host5.app[1].sleepDuration 0s
config *.host5.app[1].burstDuration 0s
config *.host5.app[2].typename UdpBasicBurst
config *.host5.app[2].destAddresses "\"host3\""
config *.host5.app[2].datarate 29876
config *.host5.app[2].messageLength 500Byte
config *.host5.app[2].tos 0
config *.host5.app[2].sendInterval 1s
config *.host5.app[2].sleepDuration 0s
config *.host5.app[2].burstDuration 0s
config *.host5.app[3].typename UdpBasicBurst
config *.host5.app[3].destAddresses "\"host4\""
config *.host5.app[3].datarate 47634
config *.host5.app[3].messageLength 200Byte
config *.host5.app[3].tos 0
config *.host5.app[3].sendInterval 1s
config *.host5.app[3].sleepDuration 0s
config *.host5.app[3].burstDuration 0s
config *.host5.app[4].typename UdpBasicBurst
config *.host5.app[4].destAddresses "\"host5\""
config *.host5.app[4].datarate 56874
config *.host5.app[4].messageLength 300Byte
config *.host5.app[4].tos 1
config *.host5.app[4].sendInterval 1s
config *.host5.app[4].sleepDuration 0s
config *.host5.app[4].burstDuration 0s
config *.host5.app[5].typename UdpBasicBurst
config *.host5.app[5].destAddresses "\"host6\""
config *.host5.app[5].datarate 38765
config *.host5.app[5].messageLength 400Byte
config *.host5.app[5].tos 0
config *.host5.app[5].sendInterval 1s
config *.host5.app[5].sleepDuration 0s
config *.host5.app[5].burstDuration 0s
config *.host5.app[6].typename UdpBasicBurst
config *.host5.app[6].destAddresses "\"host7\""
config *.host5.app[6].datarate 37654
config *.host5.app[6].messageLength 200Byte
config *.host5.app[6].tos 0
config *.host5.app[6].sendInterval 1s
config *.host5.app[6].sleepDuration 0s
config *.host5.app[6].burstDuration 0s
config *.host6.numApps 6
config *.host6.app[0].typename UdpBasicBurst
config *.host6.app[0].destAddresses "\"host1\""
config *.host6.app[0].datarate 29873
config *.host6.app[0].messageLength 400Byte
config *.host6.app[0].tos 0
config *.host6.app[0].sendInterval 1s
config *.host6.app[0].sleepDuration 0s
config *.host6.app[0].burstDuration 0s
config *.host6.app[1].typename UdpBasicBurst
config *.host6.app[1].destAddresses "\"host2\""
config *.host6.app[1].datarate 68546
config *.host6.app[1].messageLength 500Byte
config *.host6.app[1].tos 0
config *.host6.app[1].sendInterval 1s
config *.host6.app[1].sleepDuration 0s
config *.host6.app[1].burstDuration 0s
config *.host6.app[2].typename UdpBasicBurst
config *.host6.app[2].destAddresses "\"host3\""
config *.host6.app[2].datarate 38765
config *.host6.app[2].messageLength 600Byte
config *.host6.app[2].tos 1
config *.host6.app[2].sendInterval 1s
config *.host6.app[2].sleepDuration 0s
config *.host6.app[2].burstDuration 0s
config *.host6.app[3].typename UdpBasicBurst
config *.host6.app[3].destAddresses "\"host4\""
config *.host6.app[3].datarate 8546
config *.host6.app[3].messageLength 500Byte
config *.host6.app[3].tos 1
config *.host6.app[3].sendInterval 1s
config *.host6.app[3].sleepDuration 0s
config *.host6.app[3].burstDuration 0s
config *.host6.app[4].typename UdpBasicBurst
config *.host6.app[4].destAddresses "\"host5\""
config *.host6.app[4].datarate 29875
config *.host6.app[4].messageLength 400Byte
config *.host6.app[4].tos 2
config *.host6.app[4].sendInterval 1s
config *.host6.app[4].sleepDuration 0s
config *.host6.app[4].burstDuration 0s
config *.host6.app[5].typename UdpBasicBurst
config *.host6.app[5].destAddresses "\"host7\""
config *.host6.app[5].datarate 29856
config *.host6.app[5].messageLength 300Byte
config *.host6.app[5].tos 0
config *.host6.app[5].sendInterval 1s
config *.host6.app[5].sleepDuration 0s
config *.host6.app[5].burstDuration 0s
config *.host7.numApps 1
config *.host7.app[0].typename UdpBasicBurst
config *.host7.app[0].destAddresses "\"host1\""
config *.host7.app[0].datarate 109856
config *.host7.app[0].messageLength 500Byte
config *.host7.app[0].tos 0
config *.host7.app[0].sendInterval 1s
config *.host7.app[0].sleepDuration 0s
config *.host7.app[0].burstDuration 0s

vector 0 NetworkSimulation2.host1.ppp[0].ppp transmissionState:vector ETV
attr interpolationmode sample-hold
attr recordingmode vector
attr source transmissionStateChanged
attr title "tx state"
vector 1 NetworkSimulation2.host1.udp passedUpPk:vector(count) ETV
attr interpolationmode none
attr recordingmode vector(count)
attr source packetSentToUpper
attr title "packets passed up, count"
vector 2 NetworkSimulation2.host1.udp droppedPkWrongPort:vector(count) ETV
attr interpolationmode none
attr recordingmode vector(count)
attr source packetDropReasonIsNoPortFound(packetDropped)
attr title "packets dropped (wrong port), count"
vector 3 NetworkSimulation2.host1.udp droppedPkBadChecksum:vector(count) ETV
attr interpolationmode none
attr recordingmode vector(count)
attr source packetDropReasonIsIncorrectlyReceived(packetDropped)
attr title "packets dropped (checksum error), count"
vector 4 NetworkSimulation2.host2.ppp[0].ppp transmissionState:vector ETV
attr interpolationmode sample-hold
attr recordingmode vector
attr source transmissionStateChanged
attr title "tx state"
vector 5 NetworkSimulation2.host2.udp passedUpPk:vector(count) ETV
attr interpolationmode none
attr recordingmode vector(count)
attr source packetSentToUpper
attr title "packets passed up, count"
vector 6 NetworkSimulation2.host2.udp droppedPkWrongPort:vector(count) ETV
attr interpolationmode none
attr recordingmode vector(count)
attr source packetDropReasonIsNoPortFound(packetDropped)
attr title "packets dropped (wrong port), count"
vector 7 NetworkSimulation2.host2.udp droppedPkBadChecksum:vector(count) ETV
attr interpolationmode none
attr recordingmode vector(count)
attr source packetDropReasonIsIncorrectlyReceived(packetDropped)
attr title "packets dropped (checksum error), count"
vector 8 NetworkSimulation2.host3.ppp[0].ppp transmissionState:vector ETV
attr interpolationmode sample-hold
attr recordingmode vector
attr source transmissionStateChanged
attr title "tx state"
vector 9 NetworkSimulation2.host3.udp passedUpPk:vector(count) ETV
attr interpolationmode none
attr recordingmode vector(count)
attr source packetSentToUpper
attr title "packets passed up, count"
vector 10 NetworkSimulation2.host3.udp droppedPkWrongPort:vector(count) ETV
attr interpolationmode none
attr recordingmode vector(count)
attr source packetDropReasonIsNoPortFound(packetDropped)
attr title "packets dropped (wrong port), count"
vector 11 NetworkSimulation2.host3.udp droppedPkBadChecksum:vector(count) ETV
attr interpolationmode none
attr recordingmode vector(count)
attr source packetDropReasonIsIncorrectlyReceived(packetDropped)
attr title "packets dropped (checksum error), count"
vector 12 NetworkSimulation2.host4.ppp[0].ppp transmissionState:vector ETV
attr interpolationmode sample-hold
attr recordingmode vector
attr source transmissionStateChanged
attr title "tx state"
vector 13 NetworkSimulation2.host4.udp passedUpPk:vector(count) ETV
attr interpolationmode none
attr recordingmode vector(count)
attr source packetSentToUpper
attr title "packets passed up, count"
vector 14 NetworkSimulation2.host4.udp droppedPkWrongPort:vector(count) ETV
attr interpolationmode none
attr recordingmode vector(count)
attr source packetDropReasonIsNoPortFound(packetDropped)
attr title "packets dropped (wrong port), count"
vector 15 NetworkSimulation2.host4.udp droppedPkBadChecksum:vector(count) ETV
attr interpolationmode none
attr recordingmode vector(count)
attr source packetDropReasonIsIncorrectlyReceived(packetDropped)
attr title "packets dropped (checksum error), count"
vector 16 NetworkSimulation2.host5.ppp[0].ppp transmissionState:vector ETV
attr interpolationmode sample-hold
attr recordingmode vector
attr source transmissionStateChanged
attr title "tx state"
vector 17 NetworkSimulation2.host5.udp passedUpPk:vector(count) ETV
attr interpolationmode none
attr recordingmode vector(count)
attr source packetSentToUpper
attr title "packets passed up, count"
vector 18 NetworkSimulation2.host5.udp droppedPkWrongPort:vector(count) ETV
attr interpolationmode none
attr recordingmode vector(count)
attr source packetDropReasonIsNoPortFound(packetDropped)
attr title "packets dropped (wrong port), count"
vector 19 NetworkSimulation2.host5.udp droppedPkBadChecksum:vector(count) ETV
attr interpolationmode none
attr recordingmode vector(count)
attr source packetDropReasonIsIncorrectlyReceived(packetDropped)
attr title "packets dropped (checksum error), count"
vector 20 NetworkSimulation2.host6.ppp[0].ppp transmissionState:vector ETV
attr interpolationmode sample-hold
attr recordingmode vector
attr source transmissionStateChanged
attr title "tx state"
vector 21 NetworkSimulation2.host6.udp passedUpPk:vector(count) ETV
attr interpolationmode none
attr recordingmode vector(count)
attr source packetSentToUpper
attr title "packets passed up, count"
vector 22 NetworkSimulation2.host6.udp droppedPkWrongPort:vector(count) ETV
attr interpolationmode none
attr recordingmode vector(count)
attr source packetDropReasonIsNoPortFound(packetDropped)
attr title "packets dropped (wrong port), count"
vector 23 NetworkSimulation2.host6.udp droppedPkBadChecksum:vector(count) ETV
attr interpolationmode none
attr recordingmode vector(count)
attr source packetDropReasonIsIncorrectlyReceived(packetDropped)
attr title "packets dropped (checksum error), count"
vector 24 NetworkSimulation2.host7.ppp[0].ppp transmissionState:vector ETV
attr interpolationmode sample-hold
attr recordingmode vector
attr source transmissionStateChanged
attr title "tx state"
vector 25 NetworkSimulation2.host7.udp passedUpPk:vector(count) ETV
attr interpolationmode none
attr recordingmode vector(count)
attr source packetSentToUpper
attr title "packets passed up, count"
vector 26 NetworkSimulation2.host7.udp droppedPkWrongPort:vector(count) ETV
attr interpolationmode none
attr recordingmode vector(count)
attr source packetDropReasonIsNoPortFound(packetDropped)
attr title "packets dropped (wrong port), count"
vector 27 NetworkSimulation2.host7.udp droppedPkBadChecksum:vector(count) ETV
attr interpolationmode none
attr recordingmode vector(count)
attr source packetDropReasonIsIncorrectlyReceived(packetDropped)
attr title "packets dropped (checksum error), count"
vector 28 NetworkSimulation2.router5.ppp[0].ppp transmissionState:vector ETV
attr interpolationmode sample-hold
attr recordingmode vector
attr source transmissionStateChanged
attr title "tx state"
vector 29 NetworkSimulation2.router5.ppp[1].ppp transmissionState:vector ETV
attr interpolationmode sample-hold
attr recordingmode vector
attr source transmissionStateChanged
attr title "tx state"
vector 30 NetworkSimulation2.router1.ppp[0].ppp transmissionState:vector ETV
attr interpolationmode sample-hold
attr recordingmode vector
attr source transmissionStateChanged
attr title "tx state"
vector 31 NetworkSimulation2.router1.ppp[1].ppp transmissionState:vector ETV
attr interpolationmode sample-hold
attr recordingmode vector
attr source transmissionStateChanged
attr title "tx state"
vector 32 NetworkSimulation2.router1.ppp[2].ppp transmissionState:vector ETV
attr interpolationmode sample-hold
attr recordingmode vector
attr source transmissionStateChanged
attr title "tx state"
vector 33 NetworkSimulation2.router1.ppp[3].ppp transmissionState:vector ETV
attr interpolationmode sample-hold
attr recordingmode vector
attr source transmissionStateChanged
attr title "tx state"
vector 34 NetworkSimulation2.router3.ppp[0].ppp transmissionState:vector ETV
attr interpolationmode sample-hold
attr recordingmode vector
attr source transmissionStateChanged
attr title "tx state"
vector 35 NetworkSimulation2.router3.ppp[1].ppp transmissionState:vector ETV
attr interpolationmode sample-hold
attr recordingmode vector
attr source transmissionStateChanged
attr title "tx state"
vector 36 NetworkSimulation2.router3.ppp[2].ppp transmissionState:vector ETV
attr interpolationmode sample-hold
attr recordingmode vector
attr source transmissionStateChanged
attr title "tx state"
vector 37 NetworkSimulation2.router3.ppp[3].ppp transmissionState:vector ETV
attr interpolationmode sample-hold
attr recordingmode vector
attr source transmissionStateChanged
attr title "tx state"
vector 38 NetworkSimulation2.router3.ppp[4].ppp transmissionState:vector ETV
attr interpolationmode sample-hold
attr recordingmode vector
attr source transmissionStateChanged
attr title "tx state"
vector 39 NetworkSimulation2.router2.ppp[0].ppp transmissionState:vector ETV
attr interpolationmode sample-hold
attr recordingmode vector
attr source transmissionStateChanged
attr title "tx state"
vector 40 NetworkSimulation2.router2.ppp[1].ppp transmissionState:vector ETV
attr interpolationmode sample-hold
attr recordingmode vector
attr source transmissionStateChanged
attr title "tx state"
vector 41 NetworkSimulation2.router2.ppp[2].ppp transmissionState:vector ETV
attr interpolationmode sample-hold
attr recordingmode vector
attr source transmissionStateChanged
attr title "tx state"
vector 42 NetworkSimulation2.router2.ppp[3].ppp transmissionState:vector ETV
attr interpolationmode sample-hold
attr recordingmode vector
attr source transmissionStateChanged
attr title "tx state"
vector 43 NetworkSimulation2.router2.ppp[4].ppp transmissionState:vector ETV
attr interpolationmode sample-hold
attr recordingmode vector
attr source transmissionStateChanged
attr title "tx state"
vector 44 NetworkSimulation2.router6.ppp[0].ppp transmissionState:vector ETV
attr interpolationmode sample-hold
attr recordingmode vector
attr source transmissionStateChanged
attr title "tx state"
vector 45 NetworkSimulation2.router6.ppp[1].ppp transmissionState:vector ETV
attr interpolationmode sample-hold
attr recordingmode vector
attr source transmissionStateChanged
attr title "tx state"
vector 46 NetworkSimulation2.router6.ppp[2].ppp transmissionState:vector ETV
attr interpolationmode sample-hold
attr recordingmode vector
attr source transmissionStateChanged
attr title "tx state"
vector 47 NetworkSimulation2.router4.ppp[0].ppp transmissionState:vector ETV
attr interpolationmode sample-hold
attr recordingmode vector
attr source transmissionStateChanged
attr title "tx state"
vector 48 NetworkSimulation2.router4.ppp[1].ppp transmissionState:vector ETV
attr interpolationmode sample-hold
attr recordingmode vector
attr source transmissionStateChanged
attr title "tx state"
vector 49 NetworkSimulation2.router4.ppp[2].ppp transmissionState:vector ETV
attr interpolationmode sample-hold
attr recordingmode vector
attr source transmissionStateChanged
attr title "tx state"
vector 50 NetworkSimulation2.router4.ppp[3].ppp transmissionState:vector ETV
attr interpolationmode sample-hold
attr recordingmode vector
attr source transmissionStateChanged
attr title "tx state"
vector 51 NetworkSimulation2.router7.ppp[0].ppp transmissionState:vector ETV
attr interpolationmode sample-hold
attr recordingmode vector
attr source transmissionStateChanged
attr title "tx state"
vector 52 NetworkSimulation2.router7.ppp[1].ppp transmissionState:vector ETV
attr interpolationmode sample-hold
attr recordingmode vector
attr source transmissionStateChanged
attr title "tx state"
vector 53 NetworkSimulation2.router4.ppp[1].queue.red incomingPacketLengths:vector ETV
attr interpolationmode none
attr recordingmode vector
attr source "packetLength(merge(packetPushedIn, packetPulledIn))"
attr title "incoming packet lengths"
attr unit b
vector 54 NetworkSimulation2.router4.ppp[1].queue.red outgoingPacketLengths:vector ETV
attr interpolationmode none
attr recordingmode vector
attr source "packetLength(merge(packetPushedOut, packetPulledOut))"
attr title "outgoing packet lengths"
attr unit b
vector 55 NetworkSimulation2.router4.ppp[1].queue.fifo incomingPacketLengths:vector ETV
attr interpolationmode none
attr recordingmode vector
attr source packetLength(packetPushStarted)
attr title "incoming packet lengths"
attr unit b
vector 56 NetworkSimulation2.router4.ppp[1].queue.fifo queueingTime:vector ETV
attr interpolationmode none
attr recordingmode vector
attr source queueingTime(packetPulled)
attr title "queueing times"
attr unit s
vector 57 NetworkSimulation2.router4.ppp[1].queue.fifo outgoingPacketLengths:vector ETV
attr interpolationmode none
attr recordingmode vector
attr source packetLength(packetPulled)
attr title "outgoing packet lengths"
attr unit b
vector 58 NetworkSimulation2.router4.ppp[1].queue queueingTime:vector ETV
attr interpolationmode none
attr recordingmode vector
attr source queueingTime(localSignal(packetPulled))
attr title "queueing times"
attr unit s
vector 59 NetworkSimulation2.router4.ppp[1].queue outgoingPacketLengths:vector ETV
attr interpolationmode none
attr recordingmode vector
attr source packetLength(localSignal(packetPulled))
attr title "outgoing packet lengths"
attr unit b
vector 60 NetworkSimulation2.router4.ppp[1].ppp rcvdPkFromHl:vector(packetBytes) ETV
attr interpolationmode none
attr recordingmode vector(packetBytes)
attr source packetReceivedFromUpper
attr title "packets received from higher layer, packetBytes"
vector 61 NetworkSimulation2.router4.ppp[1].ppp txPk:vector(packetBytes) ETV
attr interpolationmode none
attr recordingmode vector(packetBytes)
attr source packetSentToLower
attr title "packets transmitted, packetBytes"
vector 62 NetworkSimulation2.router4.ppp[1].queue.fifo queueLength:vector ETV
attr autoWarmupFilter false
attr interpolationmode sample-hold
attr recordingmode vector
attr source "warmup(atomic(constant0(packetPushEnded) + count(packetPushStarted) - count(packetPulled) - count(packetRemoved) - count(packetDropped)))"
attr title "queue length"
attr unit pk
vector 63 NetworkSimulation2.router4.ppp[1].queue.fifo queueBitLength:vector ETV
attr autoWarmupFilter false
attr interpolationmode sample-hold
attr recordingmode vector
attr source "warmup(atomic(constant0(packetPushEnded) + sum(packetLength(packetPushStarted)) - sum(packetLength(packetPulled)) - sum(packetLength(packetRemoved)) - sum(packetLength(packetDropped))))"
attr title "queue bit length"
attr unit b
vector 64 NetworkSimulation2.router2.ppp[1].ppp rxPkOk:vector(packetBytes) ETV
attr interpolationmode none
attr recordingmode vector(packetBytes)
attr source rxPkOk
attr title "packets received OK, packetBytes"
vector 65 NetworkSimulation2.router2.ppp[1].ppp passedUpPk:vector(packetBytes) ETV
attr interpolationmode none
attr recordingmode vector(packetBytes)
attr source packetSentToUpper
attr title "packets passed to higher layer, packetBytes"
vector 66 NetworkSimulation2.router2.ppp[0].queue.red incomingPacketLengths:vector ETV
attr interpolationmode none
attr recordingmode vector
attr source "packetLength(merge(packetPushedIn, packetPulledIn))"
attr title "incoming packet lengths"
attr unit b
vector 67 NetworkSimulation2.router2.ppp[0].queue.red outgoingPacketLengths:vector ETV
attr interpolationmode none
attr recordingmode vector
attr source "packetLength(merge(packetPushedOut, packetPulledOut))"
attr title "outgoing packet lengths"
attr unit b
vector 68 NetworkSimulation2.router2.ppp[0].queue.fifo incomingPacketLengths:vector ETV
attr interpolationmode none
attr recordingmode vector
attr source packetLength(packetPushStarted)
attr title "incoming packet lengths"
attr unit b
vector 69 NetworkSimulation2.router2.ppp[0].queue.fifo queueingTime:vector ETV
attr interpolationmode none
attr recordingmode vector
attr source queueingTime(packetPulled)
attr title "queueing times"
attr unit s
vector 70 NetworkSimulation2.router2.ppp[0].queue.fifo outgoingPacketLengths:vector ETV
attr interpolationmode none
attr recordingmode vector
attr source packetLength(packetPulled)
attr title "outgoing packet lengths"
attr unit b
vector 71 NetworkSimulation2.router2.ppp[0].queue queueingTime:vector ETV
attr interpolationmode none
attr recordingmode vector
attr source queueingTime(localSignal(packetPulled))
attr title "queueing times"
attr unit s
vector 72 NetworkSimulation2.router2.ppp[0].queue outgoingPacketLengths:vector ETV
attr interpolationmode none
attr recordingmode vector
attr source packetLength(localSignal(packetPulled))
attr title "outgoing packet lengths"
attr unit b
vector 73 NetworkSimulation2.router2.ppp[0].ppp rcvdPkFromHl:vector(packetBytes) ETV
attr interpolationmode none
attr recordingmode vector(packetBytes)
attr source packetReceivedFromUpper
attr title "packets received from higher layer, packetBytes"
vector 74 NetworkSimulation2.router2.ppp[0].ppp txPk:vector(packetBytes) ETV
attr interpolationmode none
attr recordingmode vector(packetBytes)
attr source packetSentToLower
attr title "packets transmitted, packetBytes"
vector 75 NetworkSimulation2.router2.ppp[0].queue.fifo queueLength:vector ETV
attr autoWarmupFilter false
attr interpolationmode sample-hold
attr recordingmode vector
attr source "warmup(atomic(constant0(packetPushEnded) + count(packetPushStarted) - count(packetPulled) - count(packetRemoved) - count(packetDropped)))"
attr title "queue length"
attr unit pk
vector 76 NetworkSimulation2.router2.ppp[0].queue.fifo queueBitLength:vector ETV
attr autoWarmupFilter false
attr interpolationmode sample-hold
attr recordingmode vector
attr source "warmup(atomic(constant0(packetPushEnded) + sum(packetLength(packetPushStarted)) - sum(packetLength(packetPulled)) - sum(packetLength(packetRemoved)) - sum(packetLength(packetDropped))))"
attr title "queue bit length"
attr unit b
vector 77 NetworkSimulation2.router3.ppp[0].ppp rxPkOk:vector(packetBytes) ETV
attr interpolationmode none
attr recordingmode vector(packetBytes)
attr source rxPkOk
attr title "packets received OK, packetBytes"
vector 78 NetworkSimulation2.router3.ppp[0].ppp passedUpPk:vector(packetBytes) ETV
attr interpolationmode none
attr recordingmode vector(packetBytes)
attr source packetSentToUpper
attr title "packets passed to higher layer, packetBytes"
vector 79 NetworkSimulation2.router4.ppp[3].queue.red incomingPacketLengths:vector ETV
attr interpolationmode none
attr recordingmode vector
attr source "packetLength(merge(packetPushedIn, packetPulledIn))"
attr title "incoming packet lengths"
attr unit b
vector 80 NetworkSimulation2.router4.ppp[3].queue.red outgoingPacketLengths:vector ETV
attr interpolationmode none
attr recordingmode vector
attr source "packetLength(merge(packetPushedOut, packetPulledOut))"
attr title "outgoing packet lengths"
attr unit b
vector 81 NetworkSimulation2.router4.ppp[3].queue.fifo incomingPacketLengths:vector ETV
attr interpolationmode none
attr recordingmode vector
attr source packetLength(packetPushStarted)
attr title "incoming packet lengths"
attr unit b
vector 82 NetworkSimulation2.router4.ppp[3].queue.fifo queueingTime:vector ETV
attr interpolationmode none
attr recordingmode vector
attr source queueingTime(packetPulled)
attr title "queueing times"
attr unit s
vector 83 NetworkSimulation2.router4.ppp[3].queue.fifo outgoingPacketLengths:vector ETV
attr interpolationmode none
attr recordingmode vector
attr source packetLength(packetPulled)
attr title "outgoing packet lengths"
attr unit b
vector 84 NetworkSimulation2.router4.ppp[3].queue queueingTime:vector ETV
attr interpolationmode none
attr recordingmode vector
attr source queueingTime(localSignal(packetPulled))
attr title "queueing times"
attr unit s
vector 85 NetworkSimulation2.router4.ppp[3].queue outgoingPacketLengths:vector ETV
attr interpolationmode none
attr recordingmode vector
attr source packetLength(localSignal(packetPulled))
attr title "outgoing packet lengths"
attr unit b
vector 86 NetworkSimulation2.router4.ppp[3].ppp rcvdPkFromHl:vector(packetBytes) ETV
attr interpolationmode none
attr recordingmode vector(packetBytes)
attr source packetReceivedFromUpper
attr title "packets received from higher layer, packetBytes"
vector 87 NetworkSimulation2.router4.ppp[3].ppp txPk:vector(packetBytes) ETV
attr interpolationmode none
attr recordingmode vector(packetBytes)
attr source packetSentToLower
attr title "packets transmitted, packetBytes"
vector 88 NetworkSimulation2.router4.ppp[3].queue.fifo queueLength:vector ETV
attr autoWarmupFilter false
attr interpolationmode sample-hold
attr recordingmode vector
attr source "warmup(atomic(constant0(packetPushEnded) + count(packetPushStarted) - count(packetPulled) - count(packetRemoved) - count(packetDropped)))"
attr title "queue length"
attr unit pk
vector 89 NetworkSimulation2.router4.ppp[3].queue.fifo queueBitLength:vector ETV
attr autoWarmupFilter false
attr interpolationmode sample-hold
attr recordingmode vector
attr source "warmup(atomic(constant0(packetPushEnded) + sum(packetLength(packetPushStarted)) - sum(packetLength(packetPulled)) - sum(packetLength(packetRemoved)) - sum(packetLength(packetDropped))))"
attr title "queue bit length"
attr unit b
vector 90 NetworkSimulation2.host4.ppp[0].ppp rxPkOk:vector(packetBytes) ETV
attr interpolationmode none
attr recordingmode vector(packetBytes)
attr source rxPkOk
attr title "packets received OK, packetBytes"
vector 91 NetworkSimulation2.host4.ppp[0].ppp passedUpPk:vector(packetBytes) ETV
attr interpolationmode none
attr recordingmode vector(packetBytes)
attr source packetSentToUpper
attr title "packets passed to higher layer, packetBytes"
vector 92 NetworkSimulation2.router1.ppp[3].queue.red incomingPacketLengths:vector ETV
attr interpolationmode none
attr recordingmode vector
attr source "packetLength(merge(packetPushedIn, packetPulledIn))"
attr title "incoming packet lengths"
attr unit b
vector 93 NetworkSimulation2.router1.ppp[3].queue.red outgoingPacketLengths:vector ETV
attr interpolationmode none
attr recordingmode vector
attr source "packetLength(merge(packetPushedOut, packetPulledOut))"
attr title "outgoing packet lengths"
attr unit b
vector 94 NetworkSimulation2.router1.ppp[3].queue.fifo incomingPacketLengths:vector ETV
attr interpolationmode none
attr recordingmode vector
attr source packetLength(packetPushStarted)
attr title "incoming packet lengths"
attr unit b
vector 95 NetworkSimulation2.router1.ppp[3].queue.fifo queueingTime:vector ETV
attr interpolationmode none
attr recordingmode vector
attr source queueingTime(packetPulled)
attr title "queueing times"
attr unit s
vector 96 NetworkSimulation2.router1.ppp[3].queue.fifo outgoingPacketLengths:vector ETV
attr interpolationmode none
attr recordingmode vector
attr source packetLength(packetPulled)
attr title "outgoing packet lengths"
attr unit b
vector 97 NetworkSimulation2.router1.ppp[3].queue queueingTime:vector ETV
attr interpolationmode none
attr recordingmode vector
attr source queueingTime(localSignal(packetPulled))
attr title "queueing times"
attr unit s
vector 98 NetworkSimulation2.router1.ppp[3].queue outgoingPacketLengths:vector ETV
attr interpolationmode none
attr recordingmode vector
attr source packetLength(localSignal(packetPulled))
attr title "outgoing packet lengths"
attr unit b
vector 99 NetworkSimulation2.router1.ppp[3].ppp rcvdPkFromHl:vector(packetBytes) ETV
attr interpolationmode none
attr recordingmode vector(packetBytes)
attr source packetReceivedFromUpper
attr title "packets received from higher layer, packetBytes"
vector 100 NetworkSimulation2.router1.ppp[3].ppp txPk:vector(packetBytes) ETV
attr interpolationmode none
attr recordingmode vector(packetBytes)
attr source packetSentToLower
attr title "packets transmitted, packetBytes"
vector 101 NetworkSimulation2.router1.ppp[3].queue.fifo queueLength:vector ETV
attr autoWarmupFilter false
attr interpolationmode sample-hold
attr recordingmode vector
attr source "warmup(atomic(constant0(packetPushEnded) + count(packetPushStarted) - count(packetPulled) - count(packetRemoved) - count(packetDropped)))"
attr title "queue length"
attr unit pk
vector 102 NetworkSimulation2.router1.ppp[3].queue.fifo queueBitLength:vector ETV
attr autoWarmupFilter false
attr interpolationmode sample-hold
attr recordingmode vector
attr source "warmup(atomic(constant0(packetPushEnded) + sum(packetLength(packetPushStarted)) - sum(packetLength(packetPulled)) - sum(packetLength(packetRemoved)) - sum(packetLength(packetDropped))))"
attr title "queue bit length"
attr unit b
vector 103 NetworkSimulation2.host1.ppp[0].ppp rxPkOk:vector(packetBytes) ETV
attr interpolationmode none
attr recordingmode vector(packetBytes)
attr source rxPkOk
attr title "packets received OK, packetBytes"
vector 104 NetworkSimulation2.host1.ppp[0].ppp passedUpPk:vector(packetBytes) ETV
attr interpolationmode none
attr recordingmode vector(packetBytes)
attr source packetSentToUpper
attr title "packets passed to higher layer, packetBytes"
vector 105 NetworkSimulation2.router5.ppp[0].queue.red incomingPacketLengths:vector ETV
attr interpolationmode none
attr recordingmode vector
attr source "packetLength(merge(packetPushedIn, packetPulledIn))"
attr title "incoming packet lengths"
attr unit b
vector 106 NetworkSimulation2.router5.ppp[0].queue.red outgoingPacketLengths:vector ETV
attr interpolationmode none
attr recordingmode vector
attr source "packetLength(merge(packetPushedOut, packetPulledOut))"
attr title "outgoing packet lengths"
attr unit b
vector 107 NetworkSimulation2.router5.ppp[0].queue.fifo incomingPacketLengths:vector ETV
attr interpolationmode none
attr recordingmode vector
attr source packetLength(packetPushStarted)
attr title "incoming packet lengths"
attr unit b
vector 108 NetworkSimulation2.router5.ppp[0].queue.fifo queueingTime:vector ETV
attr interpolationmode none
attr recordingmode vector
attr source queueingTime(packetPulled)
attr title "queueing times"
attr unit s
vector 109 NetworkSimulation2.router5.ppp[0].queue.fifo outgoingPacketLengths:vector ETV
attr interpolationmode none
attr recordingmode vector
attr source packetLength(packetPulled)
attr title "outgoing packet lengths"
attr unit b
vector 110 NetworkSimulation2.router5.ppp[0].queue queueingTime:vector ETV
attr interpolationmode none
attr recordingmode vector
attr source queueingTime(localSignal(packetPulled))
attr title "queueing times"
attr unit s
vector 111 NetworkSimulation2.router5.ppp[0].queue outgoingPacketLengths:vector ETV
attr interpolationmode none
attr recordingmode vector
attr source packetLength(localSignal(packetPulled))
attr title "outgoing packet lengths"
attr unit b
vector 112 NetworkSimulation2.router5.ppp[0].ppp rcvdPkFromHl:vector(packetBytes) ETV
attr interpolationmode none
attr recordingmode vector(packetBytes)
attr source packetReceivedFromUpper
attr title "packets received from higher layer, packetBytes"
vector 113 NetworkSimulation2.router5.ppp[0].ppp txPk:vector(packetBytes) ETV
attr interpolationmode none
attr recordingmode vector(packetBytes)
attr source packetSentToLower
attr title "packets transmitted, packetBytes"
vector 114 NetworkSimulation2.router5.ppp[0].queue.fifo queueLength:vector ETV
attr autoWarmupFilter false
attr interpolationmode sample-hold
attr recordingmode vector
attr source "warmup(atomic(constant0(packetPushEnded) + count(packetPushStarted) - count(packetPulled) - count(packetRemoved) - count(packetDropped)))"
attr title "queue length"
attr unit pk
vector 115 NetworkSimulation2.router5.ppp[0].queue.fifo queueBitLength:vector ETV
attr autoWarmupFilter false
attr interpolationmode sample-hold
attr recordingmode vector
attr source "warmup(atomic(constant0(packetPushEnded) + sum(packetLength(packetPushStarted)) - sum(packetLength(packetPulled)) - sum(packetLength(packetRemoved)) - sum(packetLength(packetDropped))))"
attr title "queue bit length"
attr unit b
vector 116 NetworkSimulation2.router1.ppp[2].ppp rxPkOk:vector(packetBytes) ETV
attr interpolationmode none
attr recordingmode vector(packetBytes)
attr source rxPkOk
attr title "packets received OK, packetBytes"
vector 117 NetworkSimulation2.router1.ppp[2].ppp passedUpPk:vector(packetBytes) ETV
attr interpolationmode none
attr recordingmode vector(packetBytes)
attr source packetSentToUpper
attr title "packets passed to higher layer, packetBytes"
vector 118 NetworkSimulation2.router2.ppp[1].queue.red incomingPacketLengths:vector ETV
attr interpolationmode none
attr recordingmode vector
attr source "packetLength(merge(packetPushedIn, packetPulledIn))"
attr title "incoming packet lengths"
attr unit b
vector 119 NetworkSimulation2.router2.ppp[1].queue.red outgoingPacketLengths:vector ETV
attr interpolationmode none
attr recordingmode vector
attr source "packetLength(merge(packetPushedOut, packetPulledOut))"
attr title "outgoing packet lengths"
attr unit b
vector 120 NetworkSimulation2.router2.ppp[1].queue.fifo incomingPacketLengths:vector ETV
attr interpolationmode none
attr recordingmode vector
attr source packetLength(packetPushStarted)
attr title "incoming packet lengths"
attr unit b
vector 121 NetworkSimulation2.router2.ppp[1].queue.fifo queueingTime:vector ETV
attr interpolationmode none
attr recordingmode vector
attr source queueingTime(packetPulled)
attr title "queueing times"
attr unit s
vector 122 NetworkSimulation2.router2.ppp[1].queue.fifo outgoingPacketLengths:vector ETV
attr interpolationmode none
attr recordingmode vector
attr source packetLength(packetPulled)
attr title "outgoing packet lengths"
attr unit b
vector 123 NetworkSimulation2.router2.ppp[1].queue queueingTime:vector ETV
attr interpolationmode none
attr recordingmode vector
attr source queueingTime(localSignal(packetPulled))
attr title "queueing times"
attr unit s
vector 124 NetworkSimulation2.router2.ppp[1].queue outgoingPacketLengths:vector ETV
attr interpolationmode none
attr recordingmode vector
attr source packetLength(localSignal(packetPulled))
attr title "outgoing packet lengths"
attr unit b
vector 125 NetworkSimulation2.router2.ppp[1].ppp rcvdPkFromHl:vector(packetBytes) ETV
attr interpolationmode none
attr recordingmode vector(packetBytes)
attr source packetReceivedFromUpper
attr title "packets received from higher layer, packetBytes"
vector 126 NetworkSimulation2.router2.ppp[1].ppp txPk:vector(packetBytes) ETV
attr interpolationmode none
attr recordingmode vector(packetBytes)
attr source packetSentToLower
attr title "packets transmitted, packetBytes"
vector 127 NetworkSimulation2.router2.ppp[1].queue.fifo queueLength:vector ETV
attr autoWarmupFilter false
attr interpolationmode sample-hold
attr recordingmode vector
attr source "warmup(atomic(constant0(packetPushEnded) + count(packetPushStarted) - count(packetPulled) - count(packetRemoved) - count(packetDropped)))"
attr title "queue length"
attr unit pk
vector 128 NetworkSimulation2.router2.ppp[1].queue.fifo queueBitLength:vector ETV
attr autoWarmupFilter false
attr interpolationmode sample-hold
attr recordingmode vector
attr source "warmup(atomic(constant0(packetPushEnded) + sum(packetLength(packetPushStarted)) - sum(packetLength(packetPulled)) - sum(packetLength(packetRemoved)) - sum(packetLength(packetDropped))))"
attr title "queue bit length"
attr unit b
vector 129 NetworkSimulation2.router4.ppp[1].ppp rxPkOk:vector(packetBytes) ETV
attr interpolationmode none
attr recordingmode vector(packetBytes)
attr source rxPkOk
attr title "packets received OK, packetBytes"
vector 130 NetworkSimulation2.router4.ppp[1].ppp passedUpPk:vector(packetBytes) ETV
attr interpolationmode none
attr recordingmode vector(packetBytes)
attr source packetSentToUpper
attr title "packets passed to higher layer, packetBytes"
vector 131 NetworkSimulation2.router3.ppp[3].queue.red incomingPacketLengths:vector ETV
attr interpolationmode none
attr recordingmode vector
attr source "packetLength(merge(packetPushedIn, packetPulledIn))"
attr title "incoming packet lengths"
attr unit b
vector 132 NetworkSimulation2.router3.ppp[3].queue.red outgoingPacketLengths:vector ETV
attr interpolationmode none
attr recordingmode vector
attr source "packetLength(merge(packetPushedOut, packetPulledOut))"
attr title "outgoing packet lengths"
attr unit b
vector 133 NetworkSimulation2.router3.ppp[3].queue.fifo incomingPacketLengths:vector ETV
attr interpolationmode none
attr recordingmode vector
attr source packetLength(packetPushStarted)
attr title "incoming packet lengths"
attr unit b
vector 134 NetworkSimulation2.router3.ppp[3].queue.fifo queueingTime:vector ETV
attr interpolationmode none
attr recordingmode vector
attr source queueingTime(packetPulled)
attr title "queueing times"
attr unit s
vector 135 NetworkSimulation2.router3.ppp[3].queue.fifo outgoingPacketLengths:vector ETV
attr interpolationmode none
attr recordingmode vector
attr source packetLength(packetPulled)
attr title "outgoing packet lengths"
attr unit b
vector 136 NetworkSimulation2.router3.ppp[3].queue queueingTime:vector ETV
attr interpolationmode none
attr recordingmode vector
attr source queueingTime(localSignal(packetPulled))
attr title "queueing times"
attr unit s
vector 137 NetworkSimulation2.router3.ppp[3].queue outgoingPacketLengths:vector ETV
attr interpolationmode none
attr recordingmode vector
attr source packetLength(localSignal(packetPulled))
attr title "outgoing packet lengths"
attr unit b
vector 138 NetworkSimulation2.router3.ppp[3].ppp rcvdPkFromHl:vector(packetBytes) ETV
attr interpolationmode none
attr recordingmode vector(packetBytes)
attr source packetReceivedFromUpper
attr title "packets received from higher layer, packetBytes"
vector 139 NetworkSimulation2.router3.ppp[3].ppp txPk:vector(packetBytes) ETV
attr interpolationmode none
attr recordingmode vector(packetBytes)
attr source packetSentToLower
attr title "packets transmitted, packetBytes"
vector 140 NetworkSimulation2.router3.ppp[3].queue.fifo queueLength:vector ETV
attr autoWarmupFilter false
attr interpolationmode sample-hold
attr recordingmode vector
attr source "warmup(atomic(constant0(packetPushEnded) + count(packetPushStarted) - count(packetPulled) - count(packetRemoved) - count(packetDropped)))"
attr title "queue length"
attr unit pk
vector 141 NetworkSimulation2.router3.ppp[3].queue.fifo queueBitLength:vector ETV
attr autoWarmupFilter false
attr interpolationmode sample-hold
attr recordingmode vector
attr source "warmup(atomic(constant0(packetPushEnded) + sum(packetLength(packetPushStarted)) - sum(packetLength(packetPulled)) - sum(packetLength(packetRemoved)) - sum(packetLength(packetDropped))))"
attr title "queue bit length"
attr unit b
vector 142 NetworkSimulation2.router4.ppp[0].ppp rxPkOk:vector(packetBytes) ETV
attr interpolationmode none
attr recordingmode vector(packetBytes)
attr source rxPkOk
attr title "packets received OK, packetBytes"
vector 143 NetworkSimulation2.router4.ppp[0].ppp passedUpPk:vector(packetBytes) ETV
attr interpolationmode none
attr recordingmode vector(packetBytes)
attr source packetSentToUpper
attr title "packets passed to higher layer, packetBytes"
vector 144 NetworkSimulation2.router7.ppp[0].queue.red incomingPacketLengths:vector ETV
attr interpolationmode none
attr recordingmode vector
attr source "packetLength(merge(packetPushedIn, packetPulledIn))"
attr title "incoming packet lengths"
attr unit b
vector 145 NetworkSimulation2.router7.ppp[0].queue.red outgoingPacketLengths:vector ETV
attr interpolationmode none
attr recordingmode vector
attr source "packetLength(merge(packetPushedOut, packetPulledOut))"
attr title "outgoing packet lengths"
attr unit b
vector 146 NetworkSimulation2.router7.ppp[0].queue.fifo incomingPacketLengths:vector ETV
attr interpolationmode none
attr recordingmode vector
attr source packetLength(packetPushStarted)
attr title "incoming packet lengths"
attr unit b
vector 147 NetworkSimulation2.router7.ppp[0].queue.fifo queueingTime:vector ETV
attr interpolationmode none
attr recordingmode vector
attr source queueingTime(packetPulled)
attr title "queueing times"
attr unit s
vector 148 NetworkSimulation2.router7.ppp[0].queue.fifo outgoingPacketLengths:vector ETV
attr interpolationmode none
attr recordingmode vector
attr source packetLength(packetPulled)
attr title "outgoing packet lengths"
attr unit b
vector 149 NetworkSimulation2.router7.ppp[0].queue queueingTime:vector ETV
attr interpolationmode none
attr recordingmode vector
attr source queueingTime(localSignal(packetPulled))
attr title "queueing times"
attr unit s
vector 150 NetworkSimulation2.router7.ppp[0].queue outgoingPacketLengths:vector ETV
attr interpolationmode none
attr recordingmode vector
attr source packetLength(localSignal(packetPulled))
attr title "outgoing packet lengths"
attr unit b
vector 151 NetworkSimulation2.router7.ppp[0].ppp rcvdPkFromHl:vector(packetBytes) ETV
attr interpolationmode none
attr recordingmode vector(packetBytes)
attr source packetReceivedFromUpper
attr title "packets received from higher layer, packetBytes"
vector 152 NetworkSimulation2.router7.ppp[0].ppp txPk:vector(packetBytes) ETV
attr interpolationmode none
attr recordingmode vector(packetBytes)
attr source packetSentToLower
attr title "packets transmitted, packetBytes"
vector 153 NetworkSimulation2.router7.ppp[0].queue.fifo queueLength:vector ETV
attr autoWarmupFilter false
attr interpolationmode sample-hold
attr recordingmode vector
attr source "warmup(atomic(constant0(packetPushEnded) + count(packetPushStarted) - count(packetPulled) - count(packetRemoved) - count(packetDropped)))"
attr title "queue length"
attr unit pk
vector 154 NetworkSimulation2.router7.ppp[0].queue.fifo queueBitLength:vector ETV
attr autoWarmupFilter false
attr interpolationmode sample-hold
attr recordingmode vector
attr source "warmup(atomic(constant0(packetPushEnded) + sum(packetLength(packetPushStarted)) - sum(packetLength(packetPulled)) - sum(packetLength(packetRemoved)) - sum(packetLength(packetDropped))))"
attr title "queue bit length"
attr unit b
vector 155 NetworkSimulation2.router4.ppp[2].ppp rxPkOk:vector(packetBytes) ETV
attr interpolationmode none
attr recordingmode vector(packetBytes)
attr source rxPkOk
attr title "packets received OK, packetBytes"
vector 156 NetworkSimulation2.router4.ppp[2].ppp passedUpPk:vector(packetBytes) ETV
attr interpolationmode none
attr recordingmode vector(packetBytes)
attr source packetSentToUpper
attr title "packets passed to higher layer, packetBytes"
vector 157 NetworkSimulation2.router1.ppp[2].queue.red incomingPacketLengths:vector ETV
attr interpolationmode none
attr recordingmode vector
attr source "packetLength(merge(packetPushedIn, packetPulledIn))"
attr title "incoming packet lengths"
attr unit b
vector 158 NetworkSimulation2.router1.ppp[2].queue.red outgoingPacketLengths:vector ETV
attr interpolationmode none
attr recordingmode vector
attr source "packetLength(merge(packetPushedOut, packetPulledOut))"
attr title "outgoing packet lengths"
attr unit b
vector 159 NetworkSimulation2.router1.ppp[2].queue.fifo incomingPacketLengths:vector ETV
attr interpolationmode none
attr recordingmode vector
attr source packetLength(packetPushStarted)
attr title "incoming packet lengths"
attr unit b
vector 160 NetworkSimulation2.router1.ppp[2].queue.fifo queueingTime:vector ETV
attr interpolationmode none
attr recordingmode vector
attr source queueingTime(packetPulled)
attr title "queueing times"
attr unit s
vector 161 NetworkSimulation2.router1.ppp[2].queue.fifo outgoingPacketLengths:vector ETV
attr interpolationmode none
attr recordingmode vector
attr source packetLength(packetPulled)
attr title "outgoing packet lengths"
attr unit b
vector 162 NetworkSimulation2.router1.ppp[2].queue queueingTime:vector ETV
attr interpolationmode none
attr recordingmode vector
attr source queueingTime(localSignal(packetPulled))
attr title "queueing times"
attr unit s
vector 163 NetworkSimulation2.router1.ppp[2].queue outgoingPacketLengths:vector ETV
attr interpolationmode none
attr recordingmode vector
attr source packetLength(localSignal(packetPulled))
attr title "outgoing packet lengths"
attr unit b
vector 164 NetworkSimulation2.router1.ppp[2].ppp rcvdPkFromHl:vector(packetBytes) ETV
attr interpolationmode none
attr recordingmode vector(packetBytes)
attr source packetReceivedFromUpper
attr title "packets received from higher layer, packetBytes"
vector 165 NetworkSimulation2.router1.ppp[2].ppp txPk:vector(packetBytes) ETV
attr interpolationmode none
attr recordingmode vector(packetBytes)
attr source packetSentToLower
attr title "packets transmitted, packetBytes"
vector 166 NetworkSimulation2.router1.ppp[2].queue.fifo queueLength:vector ETV
attr autoWarmupFilter false
attr interpolationmode sample-hold
attr recordingmode vector
attr source "warmup(atomic(constant0(packetPushEnded) + count(packetPushStarted) - count(packetPulled) - count(packetRemoved) - count(packetDropped)))"
attr title "queue length"
attr unit pk
vector 167 NetworkSimulation2.router1.ppp[2].queue.fifo queueBitLength:vector ETV
attr autoWarmupFilter false
attr interpolationmode sample-hold
attr recordingmode vector
attr source "warmup(atomic(constant0(packetPushEnded) + sum(packetLength(packetPushStarted)) - sum(packetLength(packetPulled)) - sum(packetLength(packetRemoved)) - sum(packetLength(packetDropped))))"
attr title "queue bit length"
attr unit b
vector 168 NetworkSimulation2.router5.ppp[0].ppp rxPkOk:vector(packetBytes) ETV
attr interpolationmode none
attr recordingmode vector(packetBytes)
attr source rxPkOk
attr title "packets received OK, packetBytes"
vector 169 NetworkSimulation2.router5.ppp[0].ppp passedUpPk:vector(packetBytes) ETV
attr interpolationmode none
attr recordingmode vector(packetBytes)
attr source packetSentToUpper
attr title "packets passed to higher layer, packetBytes"
vector 170 NetworkSimulation2.router3.ppp[2].queue.red incomingPacketLengths:vector ETV
attr interpolationmode none
attr recordingmode vector
attr source "packetLength(merge(packetPushedIn, packetPulledIn))"
attr title "incoming packet lengths"
attr unit b
vector 171 NetworkSimulation2.router3.ppp[2].queue.red outgoingPacketLengths:vector ETV
attr interpolationmode none
attr recordingmode vector
attr source "packetLength(merge(packetPushedOut, packetPulledOut))"
attr title "outgoing packet lengths"
attr unit b
vector 172 NetworkSimulation2.router3.ppp[2].queue.fifo incomingPacketLengths:vector ETV
attr interpolationmode none
attr recordingmode vector
attr source packetLength(packetPushStarted)
attr title "incoming packet lengths"
attr unit b
vector 173 NetworkSimulation2.router3.ppp[2].queue.fifo queueingTime:vector ETV
attr interpolationmode none
attr recordingmode vector
attr source queueingTime(packetPulled)
attr title "queueing times"
attr unit s
vector 174 NetworkSimulation2.router3.ppp[2].queue.fifo outgoingPacketLengths:vector ETV
attr interpolationmode none
attr recordingmode vector
attr source packetLength(packetPulled)
attr title "outgoing packet lengths"
attr unit b
vector 175 NetworkSimulation2.router3.ppp[2].queue queueingTime:vector ETV
attr interpolationmode none
attr recordingmode vector
attr source queueingTime(localSignal(packetPulled))
attr title "queueing times"
attr unit s
vector 176 NetworkSimulation2.router3.ppp[2].queue outgoingPacketLengths:vector ETV
attr interpolationmode none
attr recordingmode vector
attr source packetLength(localSignal(packetPulled))
attr title "outgoing packet lengths"
attr unit b
vector 177 NetworkSimulation2.router3.ppp[2].ppp rcvdPkFromHl:vector(packetBytes) ETV
attr interpolationmode none
attr recordingmode vector(packetBytes)
attr source packetReceivedFromUpper
attr title "packets received from higher layer, packetBytes"
vector 178 NetworkSimulation2.router3.ppp[2].ppp txPk:vector(packetBytes) ETV
attr interpolationmode none
attr recordingmode vector(packetBytes)
attr source packetSentToLower
attr title "packets transmitted, packetBytes"
vector 179 NetworkSimulation2.router3.ppp[2].queue.fifo queueLength:vector ETV
attr autoWarmupFilter false
attr interpolationmode sample-hold
attr recordingmode vector
attr source "warmup(atomic(constant0(packetPushEnded) + count(packetPushStarted) - count(packetPulled) - count(packetRemoved) - count(packetDropped)))"
attr title "queue length"
attr unit pk
vector 180 NetworkSimulation2.router3.ppp[2].queue.fifo queueBitLength:vector ETV
attr autoWarmupFilter false
attr interpolationmode sample-hold
attr recordingmode vector
attr source "warmup(atomic(constant0(packetPushEnded) + sum(packetLength(packetPushStarted)) - sum(packetLength(packetPulled)) - sum(packetLength(packetRemoved)) - sum(packetLength(packetDropped))))"
attr title "queue bit length"
attr unit b
vector 181 NetworkSimulation2.router6.ppp[0].ppp rxPkOk:vector(packetBytes) ETV
attr interpolationmode none
attr recordingmode vector(packetBytes)
attr source rxPkOk
attr title "packets received OK, packetBytes"
vector 182 NetworkSimulation2.router6.ppp[0].ppp passedUpPk:vector(packetBytes) ETV
attr interpolationmode none
attr recordingmode vector(packetBytes)
attr source packetSentToUpper
attr title "packets passed to higher layer, packetBytes"
vector 183 NetworkSimulation2.router3.ppp[0].queue.red incomingPacketLengths:vector ETV
attr interpolationmode none
attr recordingmode vector
attr source "packetLength(merge(packetPushedIn, packetPulledIn))"
attr title "incoming packet lengths"
attr unit b
vector 184 NetworkSimulation2.router3.ppp[0].queue.red outgoingPacketLengths:vector ETV
attr interpolationmode none
attr recordingmode vector
attr source "packetLength(merge(packetPushedOut, packetPulledOut))"
attr title "outgoing packet lengths"
attr unit b
vector 185 NetworkSimulation2.router3.ppp[0].queue.fifo incomingPacketLengths:vector ETV
attr interpolationmode none
attr recordingmode vector
attr source packetLength(packetPushStarted)
attr title "incoming packet lengths"
attr unit b
vector 186 NetworkSimulation2.router3.ppp[0].queue.fifo queueingTime:vector ETV
attr interpolationmode none
attr recordingmode vector
attr source queueingTime(packetPulled)
attr title "queueing times"
attr unit s
vector 187 NetworkSimulation2.router3.ppp[0].queue.fifo outgoingPacketLengths:vector ETV
attr interpolationmode none
attr recordingmode vector
attr source packetLength(packetPulled)
attr title "outgoing packet lengths"
attr unit b
vector 188 NetworkSimulation2.router3.ppp[0].queue queueingTime:vector ETV
attr interpolationmode none
attr recordingmode vector
attr source queueingTime(localSignal(packetPulled))
attr title "queueing times"
attr unit s
vector 189 NetworkSimulation2.router3.ppp[0].queue outgoingPacketLengths:vector ETV
attr interpolationmode none
attr recordingmode vector
attr source packetLength(localSignal(packetPulled))
attr title "outgoing packet lengths"
attr unit b
vector 190 NetworkSimulation2.router3.ppp[0].ppp rcvdPkFromHl:vector(packetBytes) ETV
attr interpolationmode none
attr recordingmode vector(packetBytes)
attr source packetReceivedFromUpper
attr title "packets received from higher layer, packetBytes"
vector 191 NetworkSimulation2.router3.ppp[0].ppp txPk:vector(packetBytes) ETV
attr interpolationmode none
attr recordingmode vector(packetBytes)
attr source packetSentToLower
attr title "packets transmitted, packetBytes"
vector 192 NetworkSimulation2.router3.ppp[0].queue.fifo queueLength:vector ETV
attr autoWarmupFilter false
attr interpolationmode sample-hold
attr recordingmode vector
attr source "warmup(atomic(constant0(packetPushEnded) + count(packetPushStarted) - count(packetPulled) - count(packetRemoved) - count(packetDropped)))"
attr title "queue length"
attr unit pk
vector 193 NetworkSimulation2.router3.ppp[0].queue.fifo queueBitLength:vector ETV
attr autoWarmupFilter false
attr interpolationmode sample-hold
attr recordingmode vector
attr source "warmup(atomic(constant0(packetPushEnded) + sum(packetLength(packetPushStarted)) - sum(packetLength(packetPulled)) - sum(packetLength(packetRemoved)) - sum(packetLength(packetDropped))))"
attr title "queue bit length"
attr unit b
vector 194 NetworkSimulation2.router2.ppp[0].ppp rxPkOk:vector(packetBytes) ETV
attr interpolationmode none
attr recordingmode vector(packetBytes)
attr source rxPkOk
attr title "packets received OK, packetBytes"
vector 195 NetworkSimulation2.router2.ppp[0].ppp passedUpPk:vector(packetBytes) ETV
attr interpolationmode none
attr recordingmode vector(packetBytes)
attr source packetSentToUpper
attr title "packets passed to higher layer, packetBytes"
vector 196 NetworkSimulation2.router2.ppp[4].queue.red incomingPacketLengths:vector ETV
attr interpolationmode none
attr recordingmode vector
attr source "packetLength(merge(packetPushedIn, packetPulledIn))"
attr title "incoming packet lengths"
attr unit b
vector 197 NetworkSimulation2.router2.ppp[4].queue.red outgoingPacketLengths:vector ETV
attr interpolationmode none
attr recordingmode vector
attr source "packetLength(merge(packetPushedOut, packetPulledOut))"
attr title "outgoing packet lengths"
attr unit b
vector 198 NetworkSimulation2.router2.ppp[4].queue.fifo incomingPacketLengths:vector ETV
attr interpolationmode none
attr recordingmode vector
attr source packetLength(packetPushStarted)
attr title "incoming packet lengths"
attr unit b
vector 199 NetworkSimulation2.router2.ppp[4].queue.fifo queueingTime:vector ETV
attr interpolationmode none
attr recordingmode vector
attr source queueingTime(packetPulled)
attr title "queueing times"
attr unit s
vector 200 NetworkSimulation2.router2.ppp[4].queue.fifo outgoingPacketLengths:vector ETV
attr interpolationmode none
attr recordingmode vector
attr source packetLength(packetPulled)
attr title "outgoing packet lengths"
attr unit b
vector 201 NetworkSimulation2.router2.ppp[4].queue queueingTime:vector ETV
attr interpolationmode none
attr recordingmode vector
attr source queueingTime(localSignal(packetPulled))
attr title "queueing times"
attr unit s
vector 202 NetworkSimulation2.router2.ppp[4].queue outgoingPacketLengths:vector ETV
attr interpolationmode none
attr recordingmode vector
attr source packetLength(localSignal(packetPulled))
attr title "outgoing packet lengths"
attr unit b
vector 203 NetworkSimulation2.router2.ppp[4].ppp rcvdPkFromHl:vector(packetBytes) ETV
attr interpolationmode none
attr recordingmode vector(packetBytes)
attr source packetReceivedFromUpper
attr title "packets received from higher layer, packetBytes"
vector 204 NetworkSimulation2.router2.ppp[4].ppp txPk:vector(packetBytes) ETV
attr interpolationmode none
attr recordingmode vector(packetBytes)
attr source packetSentToLower
attr title "packets transmitted, packetBytes"
vector 205 NetworkSimulation2.router2.ppp[4].queue.fifo queueLength:vector ETV
attr autoWarmupFilter false
attr interpolationmode sample-hold
attr recordingmode vector
attr source "warmup(atomic(constant0(packetPushEnded) + count(packetPushStarted) - count(packetPulled) - count(packetRemoved) - count(packetDropped)))"
attr title "queue length"
attr unit pk
vector 206 NetworkSimulation2.router2.ppp[4].queue.fifo queueBitLength:vector ETV
attr autoWarmupFilter false
attr interpolationmode sample-hold
attr recordingmode vector
attr source "warmup(atomic(constant0(packetPushEnded) + sum(packetLength(packetPushStarted)) - sum(packetLength(packetPulled)) - sum(packetLength(packetRemoved)) - sum(packetLength(packetDropped))))"
attr title "queue bit length"
attr unit b
vector 207 NetworkSimulation2.host2.ppp[0].ppp rxPkOk:vector(packetBytes) ETV
attr interpolationmode none
attr recordingmode vector(packetBytes)
attr source rxPkOk
attr title "packets received OK, packetBytes"
vector 208 NetworkSimulation2.host2.ppp[0].ppp passedUpPk:vector(packetBytes) ETV
attr interpolationmode none
attr recordingmode vector(packetBytes)
attr source packetSentToUpper
attr title "packets passed to higher layer, packetBytes"
vector 209 NetworkSimulation2.router2.ppp[3].queue.red incomingPacketLengths:vector ETV
attr interpolationmode none
attr recordingmode vector
attr source "packetLength(merge(packetPushedIn, packetPulledIn))"
attr title "incoming packet lengths"
attr unit b
vector 210 NetworkSimulation2.router2.ppp[3].queue.red outgoingPacketLengths:vector ETV
attr interpolationmode none
attr recordingmode vector
attr source "packetLength(merge(packetPushedOut, packetPulledOut))"
attr title "outgoing packet lengths"
attr unit b
vector 211 NetworkSimulation2.router2.ppp[3].queue.fifo incomingPacketLengths:vector ETV
attr interpolationmode none
attr recordingmode vector
attr source packetLength(packetPushStarted)
attr title "incoming packet lengths"
attr unit b
vector 212 NetworkSimulation2.router2.ppp[3].queue.fifo queueingTime:vector ETV
attr interpolationmode none
attr recordingmode vector
attr source queueingTime(packetPulled)
attr title "queueing times"
attr unit s
vector 213 NetworkSimulation2.router2.ppp[3].queue.fifo outgoingPacketLengths:vector ETV
attr interpolationmode none
attr recordingmode vector
attr source packetLength(packetPulled)
attr title "outgoing packet lengths"
attr unit b
vector 214 NetworkSimulation2.router2.ppp[3].queue queueingTime:vector ETV
attr interpolationmode none
attr recordingmode vector
attr source queueingTime(localSignal(packetPulled))
attr title "queueing times"
attr unit s
vector 215 NetworkSimulation2.router2.ppp[3].queue outgoingPacketLengths:vector ETV
attr interpolationmode none
attr recordingmode vector
attr source packetLength(localSignal(packetPulled))
attr title "outgoing packet lengths"
attr unit b
vector 216 NetworkSimulation2.router2.ppp[3].ppp rcvdPkFromHl:vector(packetBytes) ETV
attr interpolationmode none
attr recordingmode vector(packetBytes)
attr source packetReceivedFromUpper
attr title "packets received from higher layer, packetBytes"
vector 217 NetworkSimulation2.router2.ppp[3].ppp txPk:vector(packetBytes) ETV
attr interpolationmode none
attr recordingmode vector(packetBytes)
attr source packetSentToLower
attr title "packets transmitted, packetBytes"
vector 218 NetworkSimulation2.router2.ppp[3].queue.fifo queueLength:vector ETV
attr autoWarmupFilter false
attr interpolationmode sample-hold
attr recordingmode vector
attr source "warmup(atomic(constant0(packetPushEnded) + count(packetPushStarted) - count(packetPulled) - count(packetRemoved) - count(packetDropped)))"
attr title "queue length"
attr unit pk
vector 219 NetworkSimulation2.router2.ppp[3].queue.fifo queueBitLength:vector ETV
attr autoWarmupFilter false
attr interpolationmode sample-hold
attr recordingmode vector
attr source "warmup(atomic(constant0(packetPushEnded) + sum(packetLength(packetPushStarted)) - sum(packetLength(packetPulled)) - sum(packetLength(packetRemoved)) - sum(packetLength(packetDropped))))"
attr title "queue bit length"
attr unit b
vector 220 NetworkSimulation2.router1.ppp[0].ppp rxPkOk:vector(packetBytes) ETV
attr interpolationmode none
attr recordingmode vector(packetBytes)
attr source rxPkOk
attr title "packets received OK, packetBytes"
vector 221 NetworkSimulation2.router1.ppp[0].ppp passedUpPk:vector(packetBytes) ETV
attr interpolationmode none
attr recordingmode vector(packetBytes)
attr source packetSentToUpper
attr title "packets passed to higher layer, packetBytes"
vector 222 NetworkSimulation2.router6.ppp[0].queue.red incomingPacketLengths:vector ETV
attr interpolationmode none
attr recordingmode vector
attr source "packetLength(merge(packetPushedIn, packetPulledIn))"
attr title "incoming packet lengths"
attr unit b
vector 223 NetworkSimulation2.router6.ppp[0].queue.red outgoingPacketLengths:vector ETV
attr interpolationmode none
attr recordingmode vector
attr source "packetLength(merge(packetPushedOut, packetPulledOut))"
attr title "outgoing packet lengths"
attr unit b
vector 224 NetworkSimulation2.router6.ppp[0].queue.fifo incomingPacketLengths:vector ETV
attr interpolationmode none
attr recordingmode vector
attr source packetLength(packetPushStarted)
attr title "incoming packet lengths"
attr unit b
vector 225 NetworkSimulation2.router6.ppp[0].queue.fifo queueingTime:vector ETV
attr interpolationmode none
attr recordingmode vector
attr source queueingTime(packetPulled)
attr title "queueing times"
attr unit s
vector 226 NetworkSimulation2.router6.ppp[0].queue.fifo outgoingPacketLengths:vector ETV
attr interpolationmode none
attr recordingmode vector
attr source packetLength(packetPulled)
attr title "outgoing packet lengths"
attr unit b
vector 227 NetworkSimulation2.router6.ppp[0].queue queueingTime:vector ETV
attr interpolationmode none
attr recordingmode vector
attr source queueingTime(localSignal(packetPulled))
attr title "queueing times"
attr unit s
vector 228 NetworkSimulation2.router6.ppp[0].queue outgoingPacketLengths:vector ETV
attr interpolationmode none
attr recordingmode vector
attr source packetLength(localSignal(packetPulled))
attr title "outgoing packet lengths"
attr unit b
vector 229 NetworkSimulation2.router6.ppp[0].ppp rcvdPkFromHl:vector(packetBytes) ETV
attr interpolationmode none
attr recordingmode vector(packetBytes)
attr source packetReceivedFromUpper
attr title "packets received from higher layer, packetBytes"
vector 230 NetworkSimulation2.router6.ppp[0].ppp txPk:vector(packetBytes) ETV
attr interpolationmode none
attr recordingmode vector(packetBytes)
attr source packetSentToLower
attr title "packets transmitted, packetBytes"
vector 231 NetworkSimulation2.router6.ppp[0].queue.fifo queueLength:vector ETV
attr autoWarmupFilter false
attr interpolationmode sample-hold
attr recordingmode vector
attr source "warmup(atomic(constant0(packetPushEnded) + count(packetPushStarted) - count(packetPulled) - count(packetRemoved) - count(packetDropped)))"
attr title "queue length"
attr unit pk
vector 232 NetworkSimulation2.router6.ppp[0].queue.fifo queueBitLength:vector ETV
attr autoWarmupFilter false
attr interpolationmode sample-hold
attr recordingmode vector
attr source "warmup(atomic(constant0(packetPushEnded) + sum(packetLength(packetPushStarted)) - sum(packetLength(packetPulled)) - sum(packetLength(packetRemoved)) - sum(packetLength(packetDropped))))"
attr title "queue bit length"
attr unit b
vector 233 NetworkSimulation2.router3.ppp[2].ppp rxPkOk:vector(packetBytes) ETV
attr interpolationmode none
attr recordingmode vector(packetBytes)
attr source rxPkOk
attr title "packets received OK, packetBytes"
vector 234 NetworkSimulation2.router3.ppp[2].ppp passedUpPk:vector(packetBytes) ETV
attr interpolationmode none
attr recordingmode vector(packetBytes)
attr source packetSentToUpper
attr title "packets passed to higher layer, packetBytes"
vector 235 NetworkSimulation2.router7.ppp[1].queue.red incomingPacketLengths:vector ETV
attr interpolationmode none
attr recordingmode vector
attr source "packetLength(merge(packetPushedIn, packetPulledIn))"
attr title "incoming packet lengths"
attr unit b
vector 236 NetworkSimulation2.router7.ppp[1].queue.red outgoingPacketLengths:vector ETV
attr interpolationmode none
attr recordingmode vector
attr source "packetLength(merge(packetPushedOut, packetPulledOut))"
attr title "outgoing packet lengths"
attr unit b
vector 237 NetworkSimulation2.router7.ppp[1].queue.fifo incomingPacketLengths:vector ETV
attr interpolationmode none
attr recordingmode vector
attr source packetLength(packetPushStarted)
attr title "incoming packet lengths"
attr unit b
vector 238 NetworkSimulation2.router7.ppp[1].queue.fifo queueingTime:vector ETV
attr interpolationmode none
attr recordingmode vector
attr source queueingTime(packetPulled)
attr title "queueing times"
attr unit s
vector 239 NetworkSimulation2.router7.ppp[1].queue.fifo outgoingPacketLengths:vector ETV
attr interpolationmode none
attr recordingmode vector
attr source packetLength(packetPulled)
attr title "outgoing packet lengths"
attr unit b
vector 240 NetworkSimulation2.router7.ppp[1].queue queueingTime:vector ETV
attr interpolationmode none
attr recordingmode vector
attr source queueingTime(localSignal(packetPulled))
attr title "queueing times"
attr unit s
vector 241 NetworkSimulation2.router7.ppp[1].queue outgoingPacketLengths:vector ETV
attr interpolationmode none
attr recordingmode vector
attr source packetLength(localSignal(packetPulled))
attr title "outgoing packet lengths"
attr unit b
vector 242 NetworkSimulation2.router7.ppp[1].ppp rcvdPkFromHl:vector(packetBytes) ETV
attr interpolationmode none
attr recordingmode vector(packetBytes)
attr source packetReceivedFromUpper
attr title "packets received from higher layer, packetBytes"
vector 243 NetworkSimulation2.router7.ppp[1].ppp txPk:vector(packetBytes) ETV
attr interpolationmode none
attr recordingmode vector(packetBytes)
attr source packetSentToLower
attr title "packets transmitted, packetBytes"
vector 244 NetworkSimulation2.router7.ppp[1].queue.fifo queueLength:vector ETV
attr autoWarmupFilter false
attr interpolationmode sample-hold
attr recordingmode vector
attr source "warmup(atomic(constant0(packetPushEnded) + count(packetPushStarted) - count(packetPulled) - count(packetRemoved) - count(packetDropped)))"
attr title "queue length"
attr unit pk
vector 245 NetworkSimulation2.router7.ppp[1].queue.fifo queueBitLength:vector ETV
attr autoWarmupFilter false
attr interpolationmode sample-hold
attr recordingmode vector
attr source "warmup(atomic(constant0(packetPushEnded) + sum(packetLength(packetPushStarted)) - sum(packetLength(packetPulled)) - sum(packetLength(packetRemoved)) - sum(packetLength(packetDropped))))"
attr title "queue bit length"
attr unit b
vector 246 NetworkSimulation2.host7.ppp[0].ppp rxPkOk:vector(packetBytes) ETV
attr interpolationmode none
attr recordingmode vector(packetBytes)
attr source rxPkOk
attr title "packets received OK, packetBytes"
vector 247 NetworkSimulation2.host7.ppp[0].ppp passedUpPk:vector(packetBytes) ETV
attr interpolationmode none
attr recordingmode vector(packetBytes)
attr source packetSentToUpper
attr title "packets passed to higher layer, packetBytes"
vector 248 NetworkSimulation2.router4.ppp[2].queue.red incomingPacketLengths:vector ETV
attr interpolationmode none
attr recordingmode vector
attr source "packetLength(merge(packetPushedIn, packetPulledIn))"
attr title "incoming packet lengths"
attr unit b
vector 249 NetworkSimulation2.router4.ppp[2].queue.red incomingDataRate:vector ETV
attr interpolationmode linear
attr recordingmode vector
attr source "throughput(merge(packetPushedIn, packetPulledIn))"
attr title "incoming data rate"
attr unit bps
vector 250 NetworkSimulation2.router4.ppp[2].queue.red outgoingPacketLengths:vector ETV
attr interpolationmode none
attr recordingmode vector
attr source "packetLength(merge(packetPushedOut, packetPulledOut))"
attr title "outgoing packet lengths"
attr unit b
vector 251 NetworkSimulation2.router4.ppp[2].queue.red outgoingDataRate:vector ETV
attr interpolationmode linear
attr recordingmode vector
attr source "throughput(merge(packetPushedOut, packetPulledOut))"
attr title "outgoing data rate"
attr unit bps
vector 252 NetworkSimulation2.router4.ppp[2].queue.fifo incomingPacketLengths:vector ETV
attr interpolationmode none
attr recordingmode vector
attr source packetLength(packetPushStarted)
attr title "incoming packet lengths"
attr unit b
vector 253 NetworkSimulation2.router4.ppp[2].queue.fifo incomingDataRate:vector ETV
attr interpolationmode linear
attr recordingmode vector
attr source throughput(packetPushStarted)
attr title "incoming datarate"
attr unit bps
vector 254 NetworkSimulation2.router4.ppp[2].queue.fifo queueingTime:vector ETV
attr interpolationmode none
attr recordingmode vector
attr source queueingTime(packetPulled)
attr title "queueing times"
attr unit s
vector 255 NetworkSimulation2.router4.ppp[2].queue.fifo outgoingPacketLengths:vector ETV
attr interpolationmode none
attr recordingmode vector
attr source packetLength(packetPulled)
attr title "outgoing packet lengths"
attr unit b
vector 256 NetworkSimulation2.router4.ppp[2].queue.fifo outgoingDataRate:vector ETV
attr interpolationmode linear
attr recordingmode vector
attr source throughput(packetPulled)
attr title "outgoing datarate"
attr unit bps
vector 257 NetworkSimulation2.router4.ppp[2].queue queueingTime:vector ETV
attr interpolationmode none
attr recordingmode vector
attr source queueingTime(localSignal(packetPulled))
attr title "queueing times"
attr unit s
vector 258 NetworkSimulation2.router4.ppp[2].queue outgoingPacketLengths:vector ETV
attr interpolationmode none
attr recordingmode vector
attr source packetLength(localSignal(packetPulled))
attr title "outgoing packet lengths"
attr unit b
vector 259 NetworkSimulation2.router4.ppp[2].queue outgoingDataRate:vector ETV
attr interpolationmode linear
attr recordingmode vector
attr source throughput(localSignal(packetPulled))
attr title "outgoing datarate"
attr unit bps
vector 260 NetworkSimulation2.router4.ppp[2].ppp rcvdPkFromHl:vector(packetBytes) ETV
attr interpolationmode none
attr recordingmode vector(packetBytes)
attr source packetReceivedFromUpper
attr title "packets received from higher layer, packetBytes"
vector 261 NetworkSimulation2.router4.ppp[2].ppp txPk:vector(packetBytes) ETV
attr interpolationmode none
attr recordingmode vector(packetBytes)
attr source packetSentToLower
attr title "packets transmitted, packetBytes"
vector 262 NetworkSimulation2.router4.ppp[2].queue.fifo queueLength:vector ETV
attr autoWarmupFilter false
attr interpolationmode sample-hold
attr recordingmode vector
[...]
596	56600922 10131 471671 527348 510.0000388 570.000103 364 335 635 176740 89145900
597	56611053 10131 471671 527348 510.0000388 570.000103 364 328 628 174192 86689376
600	56621184 11760 472027 527056 510.00013092 570.0000214 420 63 535 54780 18602340
601	56632944 11760 472027 527056 510.00013092 570.0000214 420 56 528 51840 17856000
603	56644704 12180 471933 526470 509.1 569 600 0 154560 8997120 1349277696000
604	56656884 12180 471933 526470 509.1 569 600 0 154560 8997120 1349277696000
605	56669064 12180 471933 526470 509.1 569 600 0 154560 8997120 1349277696000
606	56681244 12180 471933 526470 509.1 569 600 0 154560 8997120 1349277696000
607	56693424 12180 471933 526470 509.1 569 600 0 154560 8997120 1349277696000
608	56705604 10253 471687 527271 510.0000414 570.0000856 364 235 1035 212740 164025900
609	56715857 10253 471687 527271 510.0000414 570.0000856 364 228 1028 210192 161065376
611	56726110 12383 471703 527143 509.1 570 610 0 164800 9771200 1565327872000
612	56738493 12383 471703 527143 509.1 570 610 0 164800 9771200 1565327872000
613	56750876 12383 471703 527143 509.1 570 610 0 164800 9771200 1565327872000
614	56763259 12383 471703 527143 509.1 570 610 0 164800 9771200 1565327872000
615	56775642 12383 471703 527143 509.1 570 610 0 164800 9771200 1565327872000
616	56788025 12322 471675 527115 509.1 570 610 0 51520 2655360 116092723200
617	56800347 12322 471675 527115 509.1 570 610 0 51520 2655360 116092723200
618	56812669 12322 471675 527115 509.1 570 610 0 51520 2655360 116092723200
619	56824991 12322 471675 527115 509.1 570 610 0 51520 2655360 116092723200
620	56837313 12322 471675 527115 509.1 570 610 0 51520 2655360 116092723200
621	56849635 12180 472703 527051 510.1 570 600 0 196480 11310720 2132708352000
622	56861815 12180 472703 527051 510.1 570 600 0 196480 11310720 2132708352000
623	56873995 12180 472703 527051 510.1 570 600 0 196480 11310720 2132708352000
624	56886175 12180 472703 527051 510.1 570 600 0 196480 11310720 2132708352000
625	56898355 12180 472703 527051 510.1 570 600 0 196480 11310720 2132708352000
626	56910535 12180 472695 527043 510.1 570 600 0 186880 10919040 1987250380800
627	56922715 12180 472695 527043 510.1 570 600 0 186880 10919040 1987250380800
628	56934895 12180 472695 527043 510.1 570 600 0 186880 10919040 1987250380800
629	56947075 12180 472695 527043 510.1 570 600 0 186880 10919040 1987250380800
630	56959255 12180 472695 527043 510.1 570 600 0 186880 10919040 1987250380800
631	56971435 8423 471643 527305 510.0000296 570.000091 303 108 608 105024 46800992
632	56979858 6776 471644 527135 510.0000296 570.0000416 242 100 600 84300 39650000
633	56986634 8106 471644 527135 510.0000296 570.0000416 242 2.96e-05 0.0001378 0.0195952 2.11127792e-06
634	56994740 8483 471683 527353 510.0000402 570.000103 303 308 1008 171724 113718192
635	57003223 10131 471684 527295 510.0000402 570.0000884 364 208 508 130312 49961696
636	57013354 6743 471685 527356 510.0000402 570.000103 243 300 500 109300 50990000
637	57020097 8018 471685 527356 510.0000402 570.000103 243 4.02e-05 0.0001244 0.0211768 2.0804212e-06
638	57028115 8451 471686 527297 510.0000402 570.0000884 304 300 500 115400 45500000
639	57036566 9970 471686 527297 510.0000402 570.0000884 304 4.02e-05 0.0001098 0.0220332 1.78138056e-06
640	57046536 8422 471740 527354 510.000059 570.000103 303 208 508 111524 45394992
641	57054958 8422 471741 527357 510.000059 570.000103 303 200 500 109100 43630000
642	57063380 10056 471741 527357 510.000059 570.000103 303 5.9e-05 0.00015736 0.03122 3.573936336e-06
643	57073436 1647 471866 527306 510.000091 570.000091 61 300 300 18300 5490000
644	57075083 1891 471866 527306 510.000091 570.000091 61 9.1e-05 9.1e-05 0.005551 5.05141e-07
645	57076974 8368 471898 527338 510.0001004 570.0001004 301 308 508 134908 62389264
646	57085342 6748 471899 527339 510.0001004 570.0001004 241 400 500 114500 54850000
647	57092090 8194 471899 527339 510.0001004 570.0001004 241 0.0001004 0.0001806 0.0332564 4.80838816e-06
648	57100284 8460 471979 526844 510.0001178 569.000282 300 308 1008 194400 153091200
649	57108744 6780 471980 526840 510.0001178 569.0002406 240 300 1000 132000 90000000
650	57115524 8160 471980 526840 510.0001178 569.0002406 240 0.0001178 0.0002406 0.042768 8.3278128e-06
651	57123684 10020 472019 526775 510.0001284 569.0002048 360 208 508 104880 34655040
652	57133704 1740 472129 526666 510.0001658 569.0001658 60 1000 1000 60000 60000000
653	57135444 2040 472129 526666 510.0001658 569.0001658 60 0.0001658 0.0001658 0.009948 1.6493784e-06
654	57137484 1680 472004 526541 510.0001258 569.0001258 60 200 200 12000 2400000
655	57139164 2040 472004 526541 510.0001258 569.0001258 60 0.0001258 0.0001258 0.007548 9.495384e-07
656	57141204 1620 472287 526824 510.000222 569.000222 60 300 300 18000 5400000
657	57142824 1920 472287 526824 510.000222 569.000222 60 0.000222 0.000222 0.01332 2.95704e-06
658	57144744 1680 472308 526845 510.000282 569.000282 60 1000 1000 60000 60000000
659	57146424 1920 472308 526845 510.000282 569.000282 60 0.000282 0.000282 0.01692 4.77144e-06
vector 660 NetworkSimulation2.router5.ppp[0].queue.red droppedDataRate:vector ETV
attr interpolationmode linear
attr recordingmode vector
attr source throughput(packetDropped)
attr title "dropped data rate"
attr unit bps
vector 661 NetworkSimulation2.router5.ppp[1].queue.red droppedDataRate:vector ETV
attr interpolationmode linear
attr recordingmode vector
attr source throughput(packetDropped)
attr title "dropped data rate"
attr unit bps
vector 662 NetworkSimulation2.router1.ppp[0].queue.red droppedDataRate:vector ETV
attr interpolationmode linear
attr recordingmode vector
attr source throughput(packetDropped)
attr title "dropped data rate"
attr unit bps
vector 663 NetworkSimulation2.router1.ppp[1].queue.red droppedDataRate:vector ETV
attr interpolationmode linear
attr recordingmode vector
attr source throughput(packetDropped)
attr title "dropped data rate"
attr unit bps
vector 664 NetworkSimulation2.router1.ppp[2].queue.red droppedDataRate:vector ETV
attr interpolationmode linear
attr recordingmode vector
attr source throughput(packetDropped)
attr title "dropped data rate"
attr unit bps
vector 665 NetworkSimulation2.router1.ppp[3].queue.red droppedDataRate:vector ETV
attr interpolationmode linear
attr recordingmode vector
attr source throughput(packetDropped)
attr title "dropped data rate"
attr unit bps
vector 666 NetworkSimulation2.router3.ppp[0].queue.red droppedDataRate:vector ETV
attr interpolationmode linear
attr recordingmode vector
attr source throughput(packetDropped)
attr title "dropped data rate"
attr unit bps
vector 667 NetworkSimulation2.router3.ppp[1].queue.red droppedDataRate:vector ETV
attr interpolationmode linear
attr recordingmode vector
attr source throughput(packetDropped)
attr title "dropped data rate"
attr unit bps
vector 668 NetworkSimulation2.router3.ppp[2].queue.red droppedDataRate:vector ETV
attr interpolationmode linear
attr recordingmode vector
attr source throughput(packetDropped)
attr title "dropped data rate"
attr unit bps
vector 669 NetworkSimulation2.router3.ppp[3].queue.red droppedDataRate:vector ETV
attr interpolationmode linear
attr recordingmode vector
attr source throughput(packetDropped)
attr title "dropped data rate"
attr unit bps
vector 670 NetworkSimulation2.router3.ppp[4].queue.red droppedDataRate:vector ETV
attr interpolationmode linear
attr recordingmode vector
attr source throughput(packetDropped)
attr title "dropped data rate"
attr unit bps
vector 671 NetworkSimulation2.router2.ppp[0].queue.red droppedDataRate:vector ETV
attr interpolationmode linear
attr recordingmode vector
attr source throughput(packetDropped)
attr title "dropped data rate"
attr unit bps
vector 672 NetworkSimulation2.router2.ppp[1].queue.red droppedDataRate:vector ETV
attr interpolationmode linear
attr recordingmode vector
attr source throughput(packetDropped)
attr title "dropped data rate"
attr unit bps
vector 673 NetworkSimulation2.router2.ppp[2].queue.red droppedDataRate:vector ETV
attr interpolationmode linear
attr recordingmode vector
attr source throughput(packetDropped)
attr title "dropped data rate"
attr unit bps
vector 674 NetworkSimulation2.router2.ppp[3].queue.red droppedDataRate:vector ETV
attr interpolationmode linear
attr recordingmode vector
attr source throughput(packetDropped)
attr title "dropped data rate"
attr unit bps
vector 675 NetworkSimulation2.router2.ppp[4].queue.red droppedDataRate:vector ETV
attr interpolationmode linear
attr recordingmode vector
attr source throughput(packetDropped)
attr title "dropped data rate"
attr unit bps
vector 676 NetworkSimulation2.router6.ppp[0].queue.red droppedDataRate:vector ETV
attr interpolationmode linear
attr recordingmode vector
attr source throughput(packetDropped)
attr title "dropped data rate"
attr unit bps
vector 677 NetworkSimulation2.router6.ppp[1].queue.red droppedDataRate:vector ETV
attr interpolationmode linear
attr recordingmode vector
attr source throughput(packetDropped)
attr title "dropped data rate"
attr unit bps
vector 678 NetworkSimulation2.router6.ppp[2].queue.red droppedDataRate:vector ETV
attr interpolationmode linear
attr recordingmode vector
attr source throughput(packetDropped)
attr title "dropped data rate"
attr unit bps
vector 679 NetworkSimulation2.router4.ppp[0].queue.red droppedDataRate:vector ETV
attr interpolationmode linear
attr recordingmode vector
attr source throughput(packetDropped)
attr title "dropped data rate"
attr unit bps
vector 680 NetworkSimulation2.router4.ppp[1].queue.red droppedDataRate:vector ETV
attr interpolationmode linear
attr recordingmode vector
attr source throughput(packetDropped)
attr title "dropped data rate"
attr unit bps
vector 681 NetworkSimulation2.router4.ppp[2].queue.red droppedDataRate:vector ETV
attr interpolationmode linear
attr recordingmode vector
attr source throughput(packetDropped)
attr title "dropped data rate"
attr unit bps
vector 682 NetworkSimulation2.router4.ppp[3].queue.red droppedDataRate:vector ETV
attr interpolationmode linear
attr recordingmode vector
attr source throughput(packetDropped)
attr title "dropped data rate"
attr unit bps
vector 683 NetworkSimulation2.router7.ppp[0].queue.red droppedDataRate:vector ETV
attr interpolationmode linear
attr recordingmode vector
attr source throughput(packetDropped)
attr title "dropped data rate"
attr unit bps
vector 684 NetworkSimulation2.router7.ppp[1].queue.red droppedDataRate:vector ETV
attr interpolationmode linear
attr recordingmode vector
attr source throughput(packetDropped)
attr title "dropped data rate"
attr unit bps
253	57154019 40 527360 527360 570.0001044 570.0001044 1 65593869.731801 65593869.731801 65593869.731801 4.3025557463924e+15
256	57154059 40 527360 527360 570.0001044 570.0001044 1 40459770.114943 40459770.114943 40459770.114943 1.636992997754e+15
268	57154099 40 527360 527360 570.0001044 570.0001044 1 40459770.114943 40459770.114943 40459770.114943 1.636992997754e+15
269	57154139 40 527360 527360 570.0001044 570.0001044 1 40459770.114943 40459770.114943 40459770.114943 1.636992997754e+15
273	57154179 40 527360 527360 570.0001044 570.0001044 1 78773946.360153 78773946.360153 78773946.360153 6.2053346251523e+15
274	57154219 40 527360 527360 570.0001044 570.0001044 1 78773946.360153 78773946.360153 78773946.360153 6.2053346251523e+15
278	57154259 40 527360 527360 570.0001044 570.0001044 1 9808429.1187739 9808429.1187739 9808429.1187739 96205281778013
279	57154299 40 527360 527360 570.0001044 570.0001044 1 9808429.1187739 9808429.1187739 9808429.1187739 96205281778013
283	57154339 40 527360 527360 570.0001044 570.0001044 1 25134099.616858 25134099.616858 25134099.616858 6.3172296355015e+14
284	57154379 40 527360 527360 570.0001044 570.0001044 1 25134099.616858 25134099.616858 25134099.616858 6.3172296355015e+14
291	57154419 40 527360 527360 570.0001044 570.0001044 1 140996168.58238 140996168.58238 140996168.58238 1.987991955491e+16
294	57154459 40 527360 527360 570.0001044 570.0001044 1 100536398.46743 100536398.46743 100536398.46743 1.0107567416802e+16
309	57154499 40 527360 527360 570.0001044 570.0001044 1 57931034.482759 57931034.482759 57931034.482759 3.3560047562426e+15
312	57154539 40 527360 527360 570.0001044 570.0001044 1 57931034.482759 57931034.482759 57931034.482759 3.3560047562426e+15
327	57154579 40 527360 527360 570.0001044 570.0001044 1 186973180.07663 186973180.07663 186973180.07663 3.4958970067967e+16
330	57154619 40 527360 527360 570.0001044 570.0001044 1 186973180.07663 186973180.07663 186973180.07663 3.4958970067967e+16
342	57154659 40 527360 527360 570.0001044 570.0001044 1 65593869.731801 65593869.731801 65593869.731801 4.3025557463924e+15
343	57154699 40 527360 527360 570.0001044 570.0001044 1 65593869.731801 65593869.731801 65593869.731801 4.3025557463924e+15
347	57154739 40 527360 527360 570.0001044 570.0001044 1 92873563.218391 92873563.218391 92873563.218391 8.6254987448804e+15
348	57154779 40 527360 527360 570.0001044 570.0001044 1 92873563.218391 92873563.218391 92873563.218391 8.6254987448804e+15
352	57154819 40 527360 527360 570.0001044 570.0001044 1 80919540.229885 80919540.229885 80919540.229885 6.547971991016e+15
353	57154859 40 527360 527360 570.0001044 570.0001044 1 80919540.229885 80919540.229885 80919540.229885 6.547971991016e+15
360	57154899 40 527360 527360 570.0001044 570.0001044 1 80919540.229885 80919540.229885 80919540.229885 6.547971991016e+15
363	57154939 40 527360 527360 570.0001044 570.0001044 1 80919540.229885 80919540.229885 80919540.229885 6.547971991016e+15
378	57154979 40 527360 527360 570.0001044 570.0001044 1 40459770.114943 40459770.114943 40459770.114943 1.636992997754e+15
381	57155019 40 527360 527360 570.0001044 570.0001044 1 40459770.114943 40459770.114943 40459770.114943 1.636992997754e+15
396	57155059 40 527360 527360 570.0001044 570.0001044 1 40459770.114943 40459770.114943 40459770.114943 1.636992997754e+15
399	57155099 40 527360 527360 570.0001044 570.0001044 1 40459770.114943 40459770.114943 40459770.114943 1.636992997754e+15
414	57155139 40 527360 527360 570.0001044 570.0001044 1 83065134.099617 83065134.099617 83065134.099617 6.8998165029873e+15
417	57155179 40 527360 527360 570.0001044 570.0001044 1 83065134.099617 83065134.099617 83065134.099617 6.8998165029873e+15
429	57155219 40 527360 527360 570.0001044 570.0001044 1 40459770.114943 40459770.114943 40459770.114943 1.636992997754e+15
430	57155259 40 527360 527360 570.0001044 570.0001044 1 40459770.114943 40459770.114943 40459770.114943 1.636992997754e+15
437	57155299 40 527360 527360 570.0001044 570.0001044 1 40459770.114943 40459770.114943 40459770.114943 1.636992997754e+15
440	57155339 40 527360 527360 570.0001044 570.0001044 1 40459770.114943 40459770.114943 40459770.114943 1.636992997754e+15
455	57155379 39 527360 527360 570.0001044 570.0001044 1 163984674.3295 163984674.3295 163984674.3295 2.6890973414953e+16
458	57155418 40 527360 527360 570.0001044 570.0001044 1 146513409.96169 146513409.96169 146513409.96169 2.1466179298601e+16
513	57155458 40 527360 527360 570.0001044 570.0001044 1 204444444.44444 204444444.44444 204444444.44444 4.1797530864198e+16
516	57155498 40 527360 527360 570.0001044 570.0001044 1 204444444.44444 204444444.44444 204444444.44444 4.1797530864198e+16
522	57155538 40 527360 527360 570.0001044 570.0001044 1 166130268.19923 166130268.19923 166130268.19923 2.7599266011949e+16
525	57155578 40 527360 527360 570.0001044 570.0001044 1 166130268.19923 166130268.19923 166130268.19923 2.7599266011949e+16
531	57155618 39 527360 527360 570.0001044 570.0001044 1 196781609.1954 196781609.1954 196781609.1954 3.8723001717532e+16
534	57155657 39 527360 527360 570.0001044 570.0001044 1 196781609.1954 196781609.1954 196781609.1954 3.8723001717532e+16
540	57155696 40 527360 527360 570.0001044 570.0001044 1 265747126.43678 265747126.43678 265747126.43678 7.0621535209407e+16
543	57155736 40 527360 527360 570.0001044 570.0001044 1 240613026.81992 240613026.81992 240613026.81992 5.7894628675445e+16
549	57155776 40 527360 527360 570.0001044 570.0001044 1 173793103.44828 173793103.44828 173793103.44828 3.0204042806183e+16
552	57155816 40 527360 527360 570.0001044 570.0001044 1 173793103.44828 173793103.44828 173793103.44828 3.0204042806183e+16
558	57155856 40 527360 527360 570.0001044 570.0001044 1 219770114.94253 219770114.94253 219770114.94253 4.8298903421852e+16
561	57155896 40 527360 527360 570.0001044 570.0001044 1 219770114.94253 219770114.94253 219770114.94253 4.8298903421852e+16
567	57155936 40 527360 527360 570.0001044 570.0001044 1 40459770.114943 40459770.114943 40459770.114943 1.636992997754e+15
570	57155976 40 527360 527360 570.0001044 570.0001044 1 40459770.114943 40459770.114943 40459770.114943 1.636992997754e+15
586	57156016 40 527360 527360 570.0001044 570.0001044 1 156321839.08046 156321839.08046 156321839.08046 2.4436517373497e+16
587	57156056 40 527360 527360 570.0001044 570.0001044 1 156321839.08046 156321839.08046 156321839.08046 2.4436517373497e+16
591	57156096 40 527360 527360 570.0001044 570.0001044 1 225287356.32184 225287356.32184 225287356.32184 5.0754392918483e+16
592	57156136 40 527360 527360 570.0001044 570.0001044 1 146513409.96169 146513409.96169 146513409.96169 2.1466179298601e+16
605	57156176 229 527360 527360 569.1 570.0001044 11 0 149440 149440 22332313600
606	57156405 229 527360 527360 569.1 570.0001044 11 0 149440 149440 22332313600
613	57156634 40 527360 527360 570.0001044 570.0001044 1 90727969.348659 90727969.348659 90727969.348659 8.2315644221312e+15
614	57156674 40 527360 527360 570.0001044 570.0001044 1 90727969.348659 90727969.348659 90727969.348659 8.2315644221312e+15
618	57156714 40 527360 527360 570.0001044 570.0001044 1 40459770.114943 40459770.114943 40459770.114943 1.636992997754e+15
619	57156754 40 527360 527360 570.0001044 570.0001044 1 40459770.114943 40459770.114943 40459770.114943 1.636992997754e+15
623	57156794 40 527360 527360 570.0001044 570.0001044 1 154176245.21073 154176245.21073 154176245.21073 2.3770314587279e+16
624	57156834 40 527360 527360 570.0001044 570.0001044 1 121379310.34483 121379310.34483 121379310.34483 1.4732936979786e+16
628	57156874 40 527360 527360 570.0001044 570.0001044 1 173793103.44828 173793103.44828 173793103.44828 3.0204042806183e+16
629	57156914 40 527360 527360 570.0001044 570.0001044 1 173793103.44828 173793103.44828 173793103.44828 3.0204042806183e+16
660	57156954 111788 527360 527360 0.1 570.0001044 5701 0 0 0 0
661	57268742 111788 527360 527360 0.1 570.0001044 5701 0 0 0 0
662	57380530 111788 527360 527360 0.1 570.0001044 5701 0 0 0 0
663	57492318 111788 527360 527360 0.1 570.0001044 5701 0 0 0 0
664	57604106 111788 527360 527360 0.1 570.0001044 5701 0 0 0 0
665	57715894 111788 527360 527360 0.1 570.0001044 5701 0 0 0 0
666	57827682 111788 527360 527360 0.1 570.0001044 5701 0 0 0 0
667	57939470 111788 527360 527360 0.1 570.0001044 5701 0 0 0 0
668	58051258 111788 527360 527360 0.1 570.0001044 5701 0 0 0 0
669	58163046 111788 527360 527360 0.1 570.0001044 5701 0 0 0 0
670	58274834 111788 527360 527360 0.1 570.0001044 5701 0 0 0 0
671	58386622 111788 527360 527360 0.1 570.0001044 5701 0 0 0 0
672	58498410 111788 527360 527360 0.1 570.0001044 5701 0 0 0 0
673	58610198 111788 527360 527360 0.1 570.0001044 5701 0 0 0 0
674	58721986 111788 527360 527360 0.1 570.0001044 5701 0 0 0 0
675	58833774 111788 527360 527360 0.1 570.0001044 5701 0 0 0 0
676	58945562 111788 527360 527360 0.1 570.0001044 5701 0 0 0 0
677	59057350 111788 527360 527360 0.1 570.0001044 5701 0 0 0 0
678	59169138 111788 527360 527360 0.1 570.0001044 5701 0 0 0 0
679	59280926 111788 527360 527360 0.1 570.0001044 5701 0 0 0 0
680	59392714 111788 527360 527360 0.1 570.0001044 5701 0 0 0 0
681	59504502 111788 527360 527360 0.1 570.0001044 5701 0 0 0 0
682	59616290 111788 527360 527360 0.1 570.0001044 5701 0 0 0 0
683	59728078 111788 527360 527360 0.1 570.0001044 5701 0 0 0 0
684	59839866 111788 527360 527360 0.1 570.0001044 5701 0 0 0 0

